xflr5 v6.47

 Calculated polar for: NACA 0010

 1 1 Reynolds number fixed          Mach number fixed         

 xtrf =   1.000 (top)        1.000 (bottom)
 Mach =   0.000     Re =     1.000 e 6     Ncrit =   9.000

  alpha     CL        CD       CDp       Cm    Top Xtr Bot Xtr   Cpmin    Chinge    XCp    
 ------- -------- --------- --------- -------- ------- ------- -------- --------- ---------
 -20.300  -0.8972   0.24816   0.24642   0.0890  1.0000  0.0085  -2.2580   0.0000   0.3288
 -20.200  -0.8938   0.24701   0.24526   0.0882  1.0000  0.0086  -2.2432   0.0000   0.3284
 -20.100  -0.8905   0.24581   0.24407   0.0873  1.0000  0.0087  -2.2316   0.0000   0.3280
 -20.000  -0.8873   0.24457   0.24282   0.0864  1.0000  0.0088  -2.2238   0.0000   0.3275
 -19.900  -0.8840   0.24330   0.24155   0.0855  1.0000  0.0090  -2.2208   0.0000   0.3270
 -18.000  -1.0648   0.13625   0.13411   0.0272  1.0000  0.0098  -9.5795   0.0000   0.2522
 -17.900  -1.0803   0.13080   0.12858   0.0240  1.0000  0.0098  -9.8464   0.0000   0.2489
 -17.800  -1.0928   0.12620   0.12392   0.0213  1.0000  0.0098  -10.0444   0.0000   0.2463
 -17.700  -1.1038   0.12202   0.11968   0.0189  1.0000  0.0097  -10.2077   0.0000   0.2440
 -17.600  -1.1140   0.11808   0.11569   0.0166  1.0000  0.0097  -10.3505   0.0000   0.2420
 -17.500  -1.1238   0.11430   0.11186   0.0145  1.0000  0.0097  -10.4794   0.0000   0.2401
 -17.400  -1.1333   0.11064   0.10814   0.0124  1.0000  0.0097  -10.5984   0.0000   0.2383
 -17.300  -1.1426   0.10705   0.10451   0.0104  1.0000  0.0097  -10.7096   0.0000   0.2366
 -17.200  -1.1517   0.10354   0.10095   0.0084  1.0000  0.0097  -10.8139   0.0000   0.2349
 -17.100  -1.1607   0.10010   0.09746   0.0065  1.0000  0.0097  -10.9122   0.0000   0.2334
 -17.000  -1.1695   0.09672   0.09403   0.0046  1.0000  0.0097  -11.0049   0.0000   0.2319
 -16.900  -1.1783   0.09339   0.09066   0.0027  1.0000  0.0096  -11.0933   0.0000   0.2305
 -16.700  -1.1964   0.08683   0.08399  -0.0010  1.0000  0.0096  -11.2660   0.0000   0.2277
 -16.600  -1.2057   0.08356   0.08067  -0.0028  1.0000  0.0096  -11.3527   0.0000   0.2264
 -16.500  -1.2149   0.08034   0.07739  -0.0047  1.0000  0.0096  -11.4339   0.0000   0.2251
 -16.400  -1.2237   0.07719   0.07419  -0.0065  1.0000  0.0096  -11.5086   0.0000   0.2238
 -16.300  -1.2321   0.07412   0.07106  -0.0083  1.0000  0.0096  -11.5763   0.0000   0.2226
 -16.200  -1.2400   0.07113   0.06801  -0.0100  1.0000  0.0096  -11.6362   0.0000   0.2214
 -16.100  -1.2474   0.06823   0.06506  -0.0118  1.0000  0.0096  -11.6882   0.0000   0.2203
 -16.000  -1.2543   0.06545   0.06221  -0.0135  1.0000  0.0096  -11.7316   0.0000   0.2192
 -15.900  -1.2618   0.06260   0.05931  -0.0152  1.0000  0.0096  -11.7817   0.0000   0.2181
 -15.800  -1.2693   0.05980   0.05644  -0.0169  1.0000  0.0097  -11.8298   0.0000   0.2171
 -15.700  -1.2765   0.05710   0.05368  -0.0185  1.0000  0.0097  -11.8717   0.0000   0.2161
 -15.600  -1.2833   0.05450   0.05102  -0.0201  1.0000  0.0097  -11.9064   0.0000   0.2152
 -15.500  -1.2895   0.05205   0.04850  -0.0215  1.0000  0.0097  -11.9327   0.0000   0.2144
 -15.400  -1.2951   0.04974   0.04614  -0.0229  1.0000  0.0097  -11.9495   0.0000   0.2137
 -15.300  -1.3001   0.04760   0.04393  -0.0241  1.0000  0.0098  -11.9560   0.0000   0.2130
 -15.200  -1.3043   0.04562   0.04190  -0.0251  1.0000  0.0098  -11.9522   0.0000   0.2125
 -15.100  -1.3079   0.04381   0.04004  -0.0260  1.0000  0.0098  -11.9381   0.0000   0.2121
 -15.000  -1.3108   0.04216   0.03834  -0.0267  1.0000  0.0099  -11.9143   0.0000   0.2119
 -14.900  -1.3131   0.04066   0.03679  -0.0272  1.0000  0.0099  -11.8815   0.0000   0.2117
 -14.800  -1.3148   0.03929   0.03538  -0.0276  1.0000  0.0099  -11.8401   0.0000   0.2116
 -14.700  -1.3159   0.03806   0.03409  -0.0279  1.0000  0.0100  -11.7915   0.0000   0.2116
 -14.600  -1.3166   0.03693   0.03292  -0.0280  1.0000  0.0100  -11.7362   0.0000   0.2118
 -14.500  -1.3168   0.03589   0.03185  -0.0281  1.0000  0.0100  -11.6753   0.0000   0.2119
 -14.400  -1.3166   0.03495   0.03086  -0.0280  1.0000  0.0101  -11.6095   0.0000   0.2122
 -14.300  -1.3161   0.03407   0.02995  -0.0278  1.0000  0.0101  -11.5395   0.0000   0.2125
 -14.200  -1.3153   0.03326   0.02910  -0.0275  1.0000  0.0102  -11.4662   0.0000   0.2129
 -14.100  -1.3142   0.03251   0.02831  -0.0271  1.0000  0.0102  -11.3899   0.0000   0.2134
 -14.000  -1.3129   0.03181   0.02757  -0.0267  1.0000  0.0103  -11.3113   0.0000   0.2139
 -13.900  -1.3113   0.03115   0.02687  -0.0262  1.0000  0.0103  -11.2305   0.0000   0.2144
 -13.800  -1.3096   0.03052   0.02621  -0.0256  1.0000  0.0104  -11.1480   0.0000   0.2150
 -13.700  -1.3077   0.02994   0.02557  -0.0249  1.0000  0.0105  -11.0639   0.0000   0.2157
 -13.600  -1.3056   0.02938   0.02497  -0.0242  1.0000  0.0105  -10.9784   0.0000   0.2164
 -13.500  -1.3033   0.02884   0.02440  -0.0234  1.0000  0.0106  -10.8915   0.0000   0.2171
 -13.400  -1.3009   0.02834   0.02385  -0.0226  1.0000  0.0107  -10.8034   0.0000   0.2178
 -13.300  -1.2982   0.02785   0.02332  -0.0218  1.0000  0.0107  -10.7140   0.0000   0.2186
 -13.200  -1.2953   0.02739   0.02281  -0.0209  1.0000  0.0108  -10.6229   0.0000   0.2194
 -13.100  -1.2920   0.02695   0.02232  -0.0200  1.0000  0.0109  -10.5292   0.0000   0.2202
 -13.000  -1.2878   0.02651   0.02184  -0.0193  1.0000  0.0110  -10.4295   0.0000   0.2209
 -12.900  -1.2827   0.02608   0.02136  -0.0187  1.0000  0.0111  -10.3239   0.0000   0.2215
 -12.800  -1.2773   0.02567   0.02090  -0.0181  1.0000  0.0111  -10.2155   0.0000   0.2220
 -12.700  -1.2714   0.02528   0.02046  -0.0176  1.0000  0.0112  -10.1042   0.0000   0.2225
 -12.600  -1.2651   0.02491   0.02005  -0.0171  1.0000  0.0113  -9.9898   0.0000   0.2230
 -12.500  -1.2584   0.02458   0.01966  -0.0166  1.0000  0.0114  -9.8719   0.0000   0.2235
 -12.400  -1.2555   0.02387   0.01891  -0.0158  1.0000  0.0115  -9.7931   0.0000   0.2242
 -12.300  -1.2510   0.02330   0.01830  -0.0151  1.0000  0.0116  -9.6966   0.0000   0.2249
 -12.200  -1.2451   0.02287   0.01785  -0.0146  1.0000  0.0117  -9.5836   0.0000   0.2254
 -12.100  -1.2382   0.02251   0.01748  -0.0141  1.0000  0.0118  -9.4621   0.0000   0.2258
 -12.000  -1.2309   0.02220   0.01715  -0.0137  1.0000  0.0120  -9.3367   0.0000   0.2263
 -11.900  -1.2233   0.02190   0.01684  -0.0134  1.0000  0.0121  -9.2099   0.0000   0.2266
 -11.800  -1.2155   0.02162   0.01653  -0.0130  1.0000  0.0122  -9.0833   0.0000   0.2270
 -11.700  -1.2077   0.02133   0.01622  -0.0127  1.0000  0.0124  -8.9577   0.0000   0.2274
 -11.600  -1.1998   0.02105   0.01590  -0.0123  1.0000  0.0125  -8.8333   0.0000   0.2278
 -11.500  -1.1918   0.02076   0.01558  -0.0119  1.0000  0.0126  -8.7102   0.0000   0.2281
 -11.400  -1.1838   0.02047   0.01526  -0.0116  1.0000  0.0128  -8.5929   0.0000   0.2285
 -11.300  -1.1756   0.02018   0.01493  -0.0112  1.0000  0.0129  -8.4783   0.0000   0.2289
 -11.200  -1.1673   0.01991   0.01462  -0.0109  1.0000  0.0131  -8.3632   0.0000   0.2292
 -11.100  -1.1588   0.01965   0.01432  -0.0106  1.0000  0.0132  -8.2469   0.0000   0.2296
 -11.000  -1.1500   0.01942   0.01405  -0.0103  1.0000  0.0133  -8.1288   0.0000   0.2299
 -10.900  -1.1439   0.01889   0.01350  -0.0097  1.0000  0.0135  -8.0368   0.0000   0.2305
 -10.800  -1.1366   0.01849   0.01308  -0.0093  1.0000  0.0137  -7.9312   0.0000   0.2310
 -10.700  -1.1284   0.01819   0.01276  -0.0089  1.0000  0.0138  -7.8161   0.0000   0.2314
 -10.600  -1.1198   0.01794   0.01250  -0.0086  1.0000  0.0140  -7.6978   0.0000   0.2317
 -10.500  -1.1110   0.01770   0.01225  -0.0083  1.0000  0.0142  -7.5790   0.0000   0.2320
 -10.400  -1.1021   0.01747   0.01200  -0.0081  1.0000  0.0144  -7.4609   0.0000   0.2323
 -10.300  -1.0931   0.01725   0.01176  -0.0078  1.0000  0.0146  -7.3438   0.0000   0.2327
 -10.200  -1.0840   0.01703   0.01151  -0.0075  1.0000  0.0148  -7.2272   0.0000   0.2330
 -10.100  -1.0749   0.01682   0.01128  -0.0073  1.0000  0.0150  -7.1109   0.0000   0.2333
 -10.000  -1.0655   0.01663   0.01106  -0.0070  1.0000  0.0152  -6.9947   0.0000   0.2336
  -9.900  -1.0560   0.01646   0.01085  -0.0068  1.0000  0.0154  -6.8776   0.0000   0.2339
  -9.800  -1.0475   0.01616   0.01052  -0.0064  1.0000  0.0156  -6.7715   0.0000   0.2343
  -9.700  -1.0396   0.01580   0.01016  -0.0060  1.0000  0.0159  -6.6678   0.0000   0.2348
  -9.600  -1.0306   0.01557   0.00991  -0.0058  1.0000  0.0162  -6.5546   0.0000   0.2351
  -9.500  -1.0213   0.01537   0.00971  -0.0055  1.0000  0.0164  -6.4397   0.0000   0.2354
  -9.400  -1.0119   0.01518   0.00951  -0.0053  1.0000  0.0167  -6.3257   0.0000   0.2357
  -9.300  -1.0025   0.01499   0.00931  -0.0050  1.0000  0.0169  -6.2129   0.0000   0.2361
  -9.200  -0.9931   0.01481   0.00911  -0.0048  1.0000  0.0172  -6.1014   0.0000   0.2364
  -9.100  -0.9836   0.01464   0.00891  -0.0045  1.0000  0.0175  -5.9908   0.0000   0.2367
  -9.000  -0.9739   0.01448   0.00873  -0.0043  1.0000  0.0178  -5.8862   0.0000   0.2370
  -8.900  -0.9646   0.01428   0.00850  -0.0040  1.0000  0.0180  -5.7855   0.0000   0.2374
  -8.800  -0.9562   0.01397   0.00818  -0.0036  1.0000  0.0184  -5.6915   0.0000   0.2379
  -8.700  -0.9470   0.01377   0.00798  -0.0033  1.0000  0.0188  -5.5887   0.0000   0.2382
  -8.600  -0.9374   0.01361   0.00781  -0.0031  1.0000  0.0191  -5.4841   0.0000   0.2386
  -8.500  -0.9278   0.01346   0.00765  -0.0028  1.0000  0.0195  -5.3805   0.0000   0.2389
  -8.400  -0.9182   0.01331   0.00750  -0.0026  1.0000  0.0199  -5.2783   0.0000   0.2393
  -8.300  -0.9085   0.01318   0.00734  -0.0023  1.0000  0.0203  -5.1770   0.0000   0.2396
  -8.200  -0.8987   0.01306   0.00720  -0.0021  1.0000  0.0206  -5.0758   0.0000   0.2400
  -8.100  -0.8902   0.01278   0.00691  -0.0017  1.0000  0.0212  -4.9858   0.0000   0.2406
  -8.000  -0.8810   0.01259   0.00673  -0.0013  1.0000  0.0216  -4.8889   0.0000   0.2410
  -7.900  -0.8716   0.01245   0.00658  -0.0010  1.0000  0.0221  -4.7905   0.0000   0.2414
  -7.800  -0.8621   0.01231   0.00644  -0.0007  1.0000  0.0226  -4.6930   0.0000   0.2419
  -7.700  -0.8526   0.01218   0.00630  -0.0004  1.0000  0.0231  -4.5966   0.0000   0.2423
  -7.600  -0.8430   0.01208   0.00617  -0.0001  1.0000  0.0236  -4.5003   0.0000   0.2428
  -7.500  -0.8341   0.01188   0.00596   0.0003  1.0000  0.0242  -4.4104   0.0000   0.2434
  -7.400  -0.8251   0.01170   0.00580   0.0006  1.0000  0.0249  -4.3208   0.0000   0.2439
  -7.300  -0.8157   0.01158   0.00567   0.0010  1.0000  0.0256  -4.2317   0.0000   0.2444
  -7.200  -0.8063   0.01146   0.00555   0.0013  1.0000  0.0263  -4.1433   0.0000   0.2449
  -7.100  -0.7967   0.01136   0.00543   0.0016  1.0000  0.0269  -4.0558   0.0000   0.2455
  -7.000  -0.7876   0.01121   0.00527   0.0020  1.0000  0.0277  -3.9722   0.0000   0.2461
  -6.900  -0.7786   0.01104   0.00511   0.0024  1.0000  0.0286  -3.8886   0.0000   0.2467
  -6.800  -0.7693   0.01092   0.00499   0.0027  1.0000  0.0294  -3.8033   0.0000   0.2473
  -6.700  -0.7599   0.01081   0.00489   0.0031  1.0000  0.0303  -3.7183   0.0000   0.2479
  -6.600  -0.7504   0.01073   0.00479   0.0034  1.0000  0.0311  -3.6337   0.0000   0.2484
  -6.500  -0.7415   0.01055   0.00462   0.0038  1.0000  0.0324  -3.5540   0.0000   0.2492
  -6.400  -0.7324   0.01043   0.00451   0.0042  1.0000  0.0336  -3.4717   0.0000   0.2498
  -6.300  -0.7230   0.01034   0.00441   0.0046  1.0000  0.0348  -3.3896   0.0000   0.2505
  -6.200  -0.7137   0.01024   0.00431   0.0050  1.0000  0.0359  -3.3101   0.0000   0.2512
  -6.000  -0.6956   0.00999   0.00408   0.0057  1.0000  0.0391  -3.1606   0.0000   0.2527
  -5.900  -0.6862   0.00991   0.00399   0.0061  1.0000  0.0405  -3.0853   0.0000   0.2534
  -5.800  -0.6772   0.00977   0.00387   0.0065  1.0000  0.0427  -3.0127   0.0000   0.2542
  -5.700  -0.6681   0.00967   0.00378   0.0069  1.0000  0.0447  -2.9392   0.0000   0.2550
  -5.600  -0.6588   0.00958   0.00369   0.0073  1.0000  0.0467  -2.8661   0.0000   0.2558
  -5.500  -0.6498   0.00946   0.00359   0.0077  1.0000  0.0494  -2.7946   0.0000   0.2566
  -5.400  -0.6405   0.00937   0.00351   0.0080  1.0000  0.0520  -2.7226   0.0000   0.2574
  -5.300  -0.6314   0.00926   0.00342   0.0084  1.0000  0.0552  -2.6520   0.0000   0.2583
  -5.200  -0.6222   0.00917   0.00334   0.0088  1.0000  0.0585  -2.5837   0.0000   0.2592
  -5.100  -0.6121   0.00906   0.00325   0.0090  0.9999  0.0625  -2.5149   0.0000   0.2598
  -5.000  -0.5981   0.00894   0.00316   0.0083  0.9993  0.0675  -2.4337   0.0000   0.2590
  -4.900  -0.5842   0.00882   0.00307   0.0076  0.9986  0.0735  -2.3535   0.0000   0.2583
  -4.800  -0.5702   0.00869   0.00298   0.0069  0.9979  0.0803  -2.2742   0.0000   0.2575
  -4.700  -0.5561   0.00857   0.00290   0.0062  0.9972  0.0879  -2.1955   0.0000   0.2566
  -4.600  -0.5420   0.00844   0.00281   0.0055  0.9966  0.0963  -2.1184   0.0000   0.2556
  -4.500  -0.5281   0.00831   0.00273   0.0049  0.9959  0.1056  -2.0459   0.0000   0.2547
  -4.400  -0.5145   0.00818   0.00265   0.0043  0.9949  0.1157  -1.9750   0.0000   0.2538
  -4.300  -0.5007   0.00805   0.00256   0.0036  0.9940  0.1267  -1.9046   0.0000   0.2528
  -4.200  -0.4869   0.00791   0.00249   0.0030  0.9930  0.1391  -1.8347   0.0000   0.2518
  -4.100  -0.4729   0.00777   0.00241   0.0023  0.9922  0.1523  -1.7654   0.0000   0.2505
  -4.000  -0.4588   0.00763   0.00233   0.0016  0.9914  0.1663  -1.7001   0.0000   0.2492
  -3.800  -0.4302   0.00735   0.00219   0.0000  0.9900  0.1972  -1.5707   0.0000   0.2459
  -3.700  -0.4173   0.00722   0.00212  -0.0004  0.9884  0.2127  -1.5106   0.0000   0.2449
  -3.600  -0.4036   0.00709   0.00206  -0.0010  0.9871  0.2292  -1.4526   0.0000   0.2434
  -3.500  -0.3897   0.00695   0.00199  -0.0017  0.9859  0.2462  -1.3946   0.0000   0.2417
  -3.400  -0.3756   0.00682   0.00193  -0.0024  0.9849  0.2636  -1.3368   0.0000   0.2397
  -3.300  -0.3616   0.00669   0.00187  -0.0030  0.9838  0.2808  -1.2815   0.0000   0.2376
  -3.200  -0.3476   0.00656   0.00182  -0.0037  0.9828  0.2984  -1.2283   0.0000   0.2354
  -3.100  -0.3358   0.00645   0.00176  -0.0039  0.9799  0.3148  -1.1802   0.0000   0.2345
  -3.000  -0.3231   0.00633   0.00171  -0.0042  0.9776  0.3315  -1.1320   0.0000   0.2330
  -2.900  -0.3100   0.00622   0.00166  -0.0047  0.9757  0.3484  -1.0850   0.0000   0.2310
  -2.700  -0.2863   0.00602   0.00157  -0.0050  0.9694  0.3808  -0.9990   0.0000   0.2289
  -2.600  -0.2741   0.00592   0.00153  -0.0052  0.9667  0.3969  -0.9574   0.0000   0.2273
  -2.500  -0.2630   0.00583   0.00149  -0.0051  0.9626  0.4126  -0.9188   0.0000   0.2267
  -2.400  -0.2518   0.00574   0.00146  -0.0051  0.9586  0.4281  -0.8818   0.0000   0.2259
  -2.300  -0.2407   0.00565   0.00142  -0.0051  0.9544  0.4435  -0.8456   0.0000   0.2253
  -2.200  -0.2300   0.00557   0.00138  -0.0049  0.9495  0.4586  -0.8121   0.0000   0.2249
  -2.100  -0.2193   0.00549   0.00135  -0.0048  0.9446  0.4736  -0.7790   0.0000   0.2246
  -2.000  -0.2088   0.00541   0.00132  -0.0046  0.9393  0.4885  -0.7480   0.0000   0.2245
  -1.900  -0.1983   0.00534   0.00129  -0.0043  0.9335  0.5033  -0.7177   0.0000   0.2245
  -1.700  -0.1775   0.00521   0.00123  -0.0039  0.9211  0.5325  -0.6613   0.0000   0.2246
  -1.600  -0.1672   0.00515   0.00120  -0.0036  0.9145  0.5470  -0.6351   0.0000   0.2247
  -1.500  -0.1568   0.00510   0.00117  -0.0034  0.9077  0.5614  -0.6096   0.0000   0.2249
  -1.400  -0.1464   0.00504   0.00115  -0.0031  0.9001  0.5756  -0.5854   0.0000   0.2250
  -1.300  -0.1360   0.00499   0.00113  -0.0029  0.8923  0.5899  -0.5623   0.0000   0.2251
  -1.200  -0.1256   0.00494   0.00111  -0.0027  0.8842  0.6038  -0.5401   0.0000   0.2252
  -1.100  -0.1152   0.00490   0.00109  -0.0024  0.8759  0.6179  -0.5191   0.0000   0.2254
  -1.000  -0.1048   0.00487   0.00107  -0.0022  0.8671  0.6317  -0.4992   0.0000   0.2255
  -0.900  -0.0943   0.00483   0.00105  -0.0020  0.8580  0.6453  -0.4801   0.0000   0.2257
  -0.800  -0.0839   0.00480   0.00104  -0.0017  0.8485  0.6591  -0.4619   0.0000   0.2258
  -0.700  -0.0734   0.00478   0.00102  -0.0015  0.8387  0.6723  -0.4448   0.0000   0.2259
  -0.600  -0.0630   0.00475   0.00101  -0.0013  0.8285  0.6856  -0.4285   0.0000   0.2260
  -0.500  -0.0525   0.00473   0.00100  -0.0011  0.8180  0.6988  -0.4129   0.0000   0.2260
  -0.400  -0.0420   0.00472   0.00099  -0.0009  0.8072  0.7116  -0.3980   0.0000   0.2260
  -0.300  -0.0315   0.00470   0.00099  -0.0006  0.7961  0.7243  -0.3839   0.0000   0.2260
  -0.200  -0.0210   0.00469   0.00098  -0.0004  0.7847  0.7369  -0.3705   0.0000   0.2259
  -0.100  -0.0105   0.00469   0.00098  -0.0002  0.7731  0.7493  -0.3576   0.0000   0.2252
   0.000   0.0000   0.00469   0.00098  -0.0000  0.7613  0.7613  -0.3452   0.0000   0.4865
   0.100   0.0105   0.00469   0.00098   0.0002  0.7493  0.7731  -0.3576   0.0000   0.2252
   0.200   0.0210   0.00469   0.00098   0.0004  0.7369  0.7847  -0.3705   0.0000   0.2259
   0.300   0.0315   0.00470   0.00099   0.0006  0.7243  0.7961  -0.3839   0.0000   0.2260
   0.400   0.0420   0.00472   0.00099   0.0009  0.7116  0.8073  -0.3980   0.0000   0.2260
   0.500   0.0525   0.00473   0.00100   0.0011  0.6988  0.8180  -0.4129   0.0000   0.2260
   0.600   0.0630   0.00475   0.00101   0.0013  0.6856  0.8285  -0.4285   0.0000   0.2260
   0.700   0.0734   0.00478   0.00102   0.0015  0.6723  0.8387  -0.4448   0.0000   0.2259
   0.800   0.0839   0.00480   0.00104   0.0017  0.6591  0.8485  -0.4619   0.0000   0.2258
   0.900   0.0944   0.00483   0.00105   0.0020  0.6453  0.8580  -0.4801   0.0000   0.2257
   1.000   0.1048   0.00487   0.00107   0.0022  0.6317  0.8671  -0.4992   0.0000   0.2255
   1.100   0.1152   0.00490   0.00109   0.0024  0.6179  0.8759  -0.5191   0.0000   0.2254
   1.200   0.1256   0.00494   0.00111   0.0027  0.6039  0.8842  -0.5401   0.0000   0.2252
   1.300   0.1360   0.00499   0.00113   0.0029  0.5899  0.8923  -0.5623   0.0000   0.2251
   1.400   0.1464   0.00504   0.00115   0.0031  0.5756  0.9001  -0.5854   0.0000   0.2250
   1.500   0.1568   0.00510   0.00117   0.0034  0.5614  0.9077  -0.6096   0.0000   0.2249
   1.600   0.1672   0.00515   0.00120   0.0036  0.5470  0.9145  -0.6351   0.0000   0.2247
   1.700   0.1775   0.00521   0.00123   0.0039  0.5325  0.9211  -0.6613   0.0000   0.2246
   1.900   0.1983   0.00534   0.00129   0.0043  0.5033  0.9335  -0.7177   0.0000   0.2245
   2.000   0.2088   0.00541   0.00132   0.0046  0.4885  0.9393  -0.7481   0.0000   0.2245
   2.100   0.2193   0.00549   0.00135   0.0048  0.4736  0.9446  -0.7790   0.0000   0.2246
   2.200   0.2300   0.00557   0.00138   0.0049  0.4586  0.9495  -0.8121   0.0000   0.2249
   2.300   0.2407   0.00565   0.00142   0.0051  0.4435  0.9544  -0.8456   0.0000   0.2253
   2.400   0.2518   0.00574   0.00146   0.0051  0.4281  0.9586  -0.8818   0.0000   0.2259
   2.500   0.2630   0.00583   0.00149   0.0051  0.4126  0.9626  -0.9188   0.0000   0.2267
   2.600   0.2741   0.00592   0.00153   0.0052  0.3969  0.9667  -0.9574   0.0000   0.2273
   2.700   0.2863   0.00602   0.00157   0.0050  0.3808  0.9694  -0.9990   0.0000   0.2289
   2.900   0.3100   0.00622   0.00166   0.0047  0.3484  0.9757  -1.0850   0.0000   0.2310
   3.000   0.3231   0.00633   0.00171   0.0042  0.3315  0.9777  -1.1320   0.0000   0.2330
   3.100   0.3358   0.00645   0.00176   0.0039  0.3148  0.9799  -1.1802   0.0000   0.2345
   3.200   0.3476   0.00656   0.00182   0.0037  0.2984  0.9828  -1.2283   0.0000   0.2354
   3.300   0.3616   0.00669   0.00187   0.0030  0.2808  0.9838  -1.2815   0.0000   0.2376
   3.400   0.3756   0.00682   0.00193   0.0024  0.2636  0.9849  -1.3368   0.0000   0.2397
   3.500   0.3897   0.00695   0.00199   0.0017  0.2462  0.9860  -1.3946   0.0000   0.2417
   3.600   0.4037   0.00709   0.00206   0.0010  0.2292  0.9871  -1.4526   0.0000   0.2434
   3.700   0.4173   0.00722   0.00212   0.0004  0.2127  0.9884  -1.5106   0.0000   0.2449
   3.800   0.4302   0.00735   0.00219  -0.0000  0.1972  0.9900  -1.5707   0.0000   0.2459
   4.000   0.4588   0.00763   0.00233  -0.0016  0.1663  0.9914  -1.7002   0.0000   0.2492
   4.100   0.4729   0.00777   0.00241  -0.0023  0.1523  0.9922  -1.7654   0.0000   0.2505
   4.200   0.4869   0.00791   0.00248  -0.0030  0.1391  0.9930  -1.8347   0.0000   0.2518
   4.300   0.5008   0.00805   0.00256  -0.0036  0.1267  0.9940  -1.9046   0.0000   0.2529
   4.400   0.5145   0.00818   0.00264  -0.0043  0.1157  0.9949  -1.9750   0.0000   0.2538
   4.500   0.5281   0.00831   0.00273  -0.0049  0.1056  0.9959  -2.0459   0.0000   0.2547
   4.600   0.5420   0.00844   0.00281  -0.0055  0.0963  0.9967  -2.1184   0.0000   0.2556
   4.700   0.5561   0.00857   0.00290  -0.0062  0.0879  0.9973  -2.1955   0.0000   0.2566
   4.800   0.5702   0.00869   0.00298  -0.0069  0.0803  0.9979  -2.2742   0.0000   0.2575
   4.900   0.5842   0.00882   0.00307  -0.0076  0.0735  0.9986  -2.3536   0.0000   0.2583
   5.000   0.5981   0.00894   0.00316  -0.0083  0.0675  0.9993  -2.4338   0.0000   0.2590
   5.100   0.6122   0.00906   0.00325  -0.0090  0.0625  0.9999  -2.5149   0.0000   0.2598
   5.200   0.6221   0.00917   0.00334  -0.0088  0.0585  1.0000  -2.5835   0.0000   0.2591
   5.300   0.6314   0.00926   0.00342  -0.0084  0.0552  1.0000  -2.6517   0.0000   0.2583
   5.400   0.6405   0.00937   0.00351  -0.0080  0.0520  1.0000  -2.7224   0.0000   0.2574
   5.500   0.6497   0.00946   0.00359  -0.0077  0.0494  1.0000  -2.7944   0.0000   0.2566
   5.600   0.6587   0.00958   0.00369  -0.0073  0.0467  1.0000  -2.8659   0.0000   0.2558
   5.700   0.6680   0.00967   0.00378  -0.0069  0.0447  1.0000  -2.9389   0.0000   0.2550
   5.800   0.6772   0.00977   0.00387  -0.0065  0.0427  1.0000  -3.0125   0.0000   0.2542
   5.900   0.6862   0.00991   0.00399  -0.0061  0.0405  1.0000  -3.0850   0.0000   0.2534
   6.000   0.6955   0.00999   0.00408  -0.0057  0.0391  1.0000  -3.1604   0.0000   0.2527
   6.100   0.7047   0.01009   0.00418  -0.0054  0.0375  1.0000  -3.2357   0.0000   0.2519
   6.200   0.7137   0.01024   0.00431  -0.0049  0.0359  1.0000  -3.3099   0.0000   0.2512
   6.300   0.7230   0.01034   0.00441  -0.0046  0.0348  1.0000  -3.3894   0.0000   0.2505
   6.400   0.7323   0.01043   0.00451  -0.0042  0.0336  1.0000  -3.4715   0.0000   0.2498
   6.500   0.7415   0.01055   0.00462  -0.0038  0.0324  1.0000  -3.5538   0.0000   0.2492
   6.600   0.7503   0.01073   0.00479  -0.0034  0.0311  1.0000  -3.6335   0.0000   0.2484
   6.700   0.7598   0.01081   0.00489  -0.0031  0.0303  1.0000  -3.7181   0.0000   0.2478
   6.800   0.7692   0.01092   0.00499  -0.0027  0.0294  1.0000  -3.8031   0.0000   0.2473
   6.900   0.7785   0.01104   0.00511  -0.0024  0.0286  1.0000  -3.8884   0.0000   0.2467
   7.000   0.7875   0.01120   0.00527  -0.0020  0.0277  1.0000  -3.9720   0.0000   0.2460
   7.100   0.7967   0.01136   0.00543  -0.0016  0.0269  1.0000  -4.0557   0.0000   0.2454
   7.200   0.8062   0.01146   0.00555  -0.0013  0.0263  1.0000  -4.1431   0.0000   0.2449
   7.300   0.8157   0.01158   0.00567  -0.0010  0.0256  1.0000  -4.2315   0.0000   0.2444
   7.400   0.8250   0.01170   0.00580  -0.0006  0.0249  1.0000  -4.3207   0.0000   0.2439
   7.500   0.8341   0.01188   0.00596  -0.0003  0.0242  1.0000  -4.4102   0.0000   0.2434
   7.600   0.8430   0.01208   0.00617   0.0001  0.0236  1.0000  -4.5001   0.0000   0.2428
   7.700   0.8526   0.01218   0.00630   0.0004  0.0231  1.0000  -4.5965   0.0000   0.2423
   7.800   0.8621   0.01231   0.00644   0.0007  0.0226  1.0000  -4.6929   0.0000   0.2419
   7.900   0.8716   0.01245   0.00658   0.0010  0.0221  1.0000  -4.7904   0.0000   0.2414
   8.000   0.8810   0.01259   0.00673   0.0013  0.0216  1.0000  -4.8888   0.0000   0.2410
   8.100   0.8902   0.01278   0.00691   0.0017  0.0212  1.0000  -4.9858   0.0000   0.2406
   8.200   0.8987   0.01306   0.00720   0.0021  0.0206  1.0000  -5.0758   0.0000   0.2400
   8.300   0.9085   0.01318   0.00734   0.0023  0.0203  1.0000  -5.1770   0.0000   0.2396
   8.400   0.9182   0.01331   0.00750   0.0026  0.0199  1.0000  -5.2783   0.0000   0.2393
   8.500   0.9278   0.01346   0.00765   0.0028  0.0195  1.0000  -5.3805   0.0000   0.2389
   8.600   0.9374   0.01361   0.00781   0.0031  0.0191  1.0000  -5.4841   0.0000   0.2386
   8.700   0.9470   0.01377   0.00798   0.0033  0.0188  1.0000  -5.5887   0.0000   0.2383
   8.800   0.9562   0.01397   0.00818   0.0036  0.0184  1.0000  -5.6916   0.0000   0.2379
   8.900   0.9646   0.01428   0.00850   0.0040  0.0180  1.0000  -5.7856   0.0000   0.2374
   9.000   0.9739   0.01448   0.00873   0.0043  0.0178  1.0000  -5.8864   0.0000   0.2370
   9.100   0.9836   0.01464   0.00891   0.0045  0.0175  1.0000  -5.9910   0.0000   0.2367
   9.200   0.9931   0.01481   0.00911   0.0048  0.0172  1.0000  -6.1015   0.0000   0.2364
   9.300   1.0026   0.01499   0.00931   0.0050  0.0169  1.0000  -6.2131   0.0000   0.2361
   9.400   1.0120   0.01518   0.00951   0.0053  0.0167  1.0000  -6.3259   0.0000   0.2357
   9.500   1.0214   0.01537   0.00971   0.0055  0.0164  1.0000  -6.4399   0.0000   0.2354
   9.600   1.0306   0.01557   0.00991   0.0057  0.0162  1.0000  -6.5549   0.0000   0.2351
   9.700   1.0396   0.01580   0.01016   0.0060  0.0159  1.0000  -6.6681   0.0000   0.2348
   9.800   1.0476   0.01616   0.01052   0.0064  0.0156  1.0000  -6.7718   0.0000   0.2343
   9.900   1.0561   0.01646   0.01085   0.0068  0.0154  1.0000  -6.8780   0.0000   0.2339
  10.000   1.0656   0.01663   0.01106   0.0070  0.0152  1.0000  -6.9951   0.0000   0.2336
  10.100   1.0749   0.01682   0.01128   0.0073  0.0150  1.0000  -7.1113   0.0000   0.2333
  10.200   1.0841   0.01703   0.01151   0.0075  0.0148  1.0000  -7.2276   0.0000   0.2330
  10.300   1.0932   0.01725   0.01176   0.0078  0.0146  1.0000  -7.3442   0.0000   0.2327
  10.400   1.1021   0.01747   0.01200   0.0081  0.0144  1.0000  -7.4614   0.0000   0.2324
  10.500   1.1111   0.01770   0.01225   0.0083  0.0142  1.0000  -7.5795   0.0000   0.2320
  10.600   1.1199   0.01794   0.01250   0.0086  0.0140  1.0000  -7.6983   0.0000   0.2317
  10.700   1.1285   0.01819   0.01276   0.0089  0.0138  1.0000  -7.8166   0.0000   0.2314
  10.800   1.1367   0.01849   0.01308   0.0092  0.0137  1.0000  -7.9318   0.0000   0.2310
  10.900   1.1440   0.01890   0.01350   0.0097  0.0135  1.0000  -8.0373   0.0000   0.2305
  11.000   1.1502   0.01942   0.01405   0.0103  0.0133  1.0000  -8.1295   0.0000   0.2299
  11.100   1.1589   0.01965   0.01432   0.0106  0.0132  1.0000  -8.2476   0.0000   0.2296
  11.200   1.1675   0.01991   0.01462   0.0109  0.0131  1.0000  -8.3640   0.0000   0.2293
  11.300   1.1758   0.02018   0.01493   0.0112  0.0129  1.0000  -8.4790   0.0000   0.2289
  11.400   1.1839   0.02047   0.01526   0.0116  0.0128  1.0000  -8.5937   0.0000   0.2285
  11.500   1.1919   0.02076   0.01558   0.0119  0.0126  1.0000  -8.7112   0.0000   0.2282
  11.600   1.1999   0.02105   0.01591   0.0123  0.0125  1.0000  -8.8343   0.0000   0.2278
  11.700   1.2078   0.02133   0.01622   0.0126  0.0124  1.0000  -8.9587   0.0000   0.2274
  11.800   1.2157   0.02162   0.01653   0.0130  0.0122  1.0000  -9.0844   0.0000   0.2270
  11.900   1.2235   0.02191   0.01684   0.0133  0.0121  1.0000  -9.2111   0.0000   0.2267
  12.000   1.2311   0.02220   0.01715   0.0137  0.0120  1.0000  -9.3379   0.0000   0.2263
  12.100   1.2384   0.02251   0.01748   0.0141  0.0118  1.0000  -9.4634   0.0000   0.2259
  12.200   1.2453   0.02287   0.01785   0.0145  0.0117  1.0000  -9.5849   0.0000   0.2254
  12.300   1.2512   0.02330   0.01831   0.0151  0.0116  1.0000  -9.6979   0.0000   0.2249
  12.400   1.2557   0.02387   0.01891   0.0158  0.0115  1.0000  -9.7942   0.0000   0.2243
  12.500   1.2587   0.02458   0.01966   0.0166  0.0114  1.0000  -9.8736   0.0000   0.2235
  12.600   1.2654   0.02491   0.02005   0.0170  0.0113  1.0000  -9.9915   0.0000   0.2230
  12.700   1.2717   0.02528   0.02046   0.0175  0.0112  1.0000  -10.1060   0.0000   0.2226
  12.800   1.2776   0.02567   0.02090   0.0181  0.0111  1.0000  -10.2174   0.0000   0.2221
  12.900   1.2830   0.02608   0.02136   0.0186  0.0111  1.0000  -10.3259   0.0000   0.2215
  13.000   1.2881   0.02651   0.02184   0.0192  0.0110  1.0000  -10.4317   0.0000   0.2210
  13.100   1.2923   0.02695   0.02233   0.0200  0.0109  1.0000  -10.5317   0.0000   0.2203
  13.200   1.2957   0.02739   0.02282   0.0208  0.0108  1.0000  -10.6256   0.0000   0.2195
  13.300   1.2986   0.02786   0.02332   0.0217  0.0107  1.0000  -10.7169   0.0000   0.2187
  13.400   1.3013   0.02834   0.02385   0.0225  0.0107  1.0000  -10.8066   0.0000   0.2179
  13.500   1.3038   0.02885   0.02440   0.0234  0.0106  1.0000  -10.8949   0.0000   0.2172
  13.600   1.3061   0.02938   0.02497   0.0241  0.0105  1.0000  -10.9820   0.0000   0.2164
  13.700   1.3082   0.02994   0.02557   0.0248  0.0105  1.0000  -11.0678   0.0000   0.2158
  13.800   1.3102   0.03052   0.02621   0.0255  0.0104  1.0000  -11.1521   0.0000   0.2151
  13.900   1.3119   0.03115   0.02687   0.0261  0.0103  1.0000  -11.2349   0.0000   0.2145
  14.000   1.3135   0.03181   0.02757   0.0266  0.0103  1.0000  -11.3159   0.0000   0.2140
  14.100   1.3148   0.03251   0.02831   0.0270  0.0102  1.0000  -11.3948   0.0000   0.2135
  14.200   1.3159   0.03326   0.02910   0.0274  0.0102  1.0000  -11.4713   0.0000   0.2130
  14.300   1.3168   0.03407   0.02994   0.0277  0.0101  1.0000  -11.5449   0.0000   0.2126
  14.400   1.3173   0.03494   0.03086   0.0279  0.0101  1.0000  -11.6151   0.0000   0.2123
  14.500   1.3175   0.03589   0.03184   0.0279  0.0100  1.0000  -11.6811   0.0000   0.2120
  14.600   1.3173   0.03692   0.03291   0.0279  0.0100  1.0000  -11.7423   0.0000   0.2119
  14.700   1.3167   0.03805   0.03409   0.0278  0.0100  1.0000  -11.7977   0.0000   0.2117
  14.800   1.3156   0.03929   0.03537   0.0275  0.0099  1.0000  -11.8464   0.0000   0.2117
  14.900   1.3139   0.04065   0.03678   0.0271  0.0099  1.0000  -11.8877   0.0000   0.2118
  15.000   1.3116   0.04216   0.03833   0.0265  0.0098  1.0000  -11.9204   0.0000   0.2120
  15.100   1.3087   0.04381   0.04004   0.0258  0.0098  1.0000  -11.9440   0.0000   0.2123
  15.200   1.3051   0.04563   0.04191   0.0249  0.0098  1.0000  -11.9578   0.0000   0.2126
  15.300   1.3008   0.04761   0.04395   0.0239  0.0098  1.0000  -11.9610   0.0000   0.2132
  15.400   1.2958   0.04977   0.04616   0.0227  0.0097  1.0000  -11.9540   0.0000   0.2138
  15.500   1.2902   0.05208   0.04854   0.0214  0.0097  1.0000  -11.9365   0.0000   0.2145
  15.600   1.2839   0.05455   0.05107   0.0199  0.0097  1.0000  -11.9095   0.0000   0.2153
  15.700   1.2771   0.05715   0.05373   0.0183  0.0097  1.0000  -11.8741   0.0000   0.2163
  15.800   1.2699   0.05986   0.05651   0.0167  0.0097  1.0000  -11.8315   0.0000   0.2173
  16.000   1.2555   0.06544   0.06221   0.0133  0.0096  1.0000  -11.7408   0.0000   0.2194
  16.100   1.2486   0.06823   0.06506   0.0116  0.0096  1.0000  -11.6973   0.0000   0.2205
  16.200   1.2412   0.07113   0.06801   0.0098  0.0096  1.0000  -11.6451   0.0000   0.2216
  16.300   1.2333   0.07413   0.07107   0.0080  0.0096  1.0000  -11.5850   0.0000   0.2228
  16.400   1.2249   0.07721   0.07421   0.0062  0.0096  1.0000  -11.5171   0.0000   0.2240
  16.500   1.2161   0.08036   0.07742   0.0044  0.0096  1.0000  -11.4421   0.0000   0.2253
  16.600   1.2069   0.08359   0.08070   0.0026  0.0096  1.0000  -11.3606   0.0000   0.2266
  16.700   1.1975   0.08687   0.08403   0.0007  0.0096  1.0000  -11.2734   0.0000   0.2279
  16.800   1.1879   0.09020   0.08741  -0.0011  0.0096  1.0000  -11.1812   0.0000   0.2293
  17.000   1.1702   0.09684   0.09415  -0.0049  0.0097  1.0000  -11.0048   0.0000   0.2321
  17.100   1.1613   0.10021   0.09757  -0.0068  0.0097  1.0000  -10.9123   0.0000   0.2336
  17.200   1.1524   0.10365   0.10106  -0.0087  0.0097  1.0000  -10.8144   0.0000   0.2352
  17.300   1.1433   0.10716   0.10462  -0.0107  0.0097  1.0000  -10.7105   0.0000   0.2368
  17.400   1.1341   0.11074   0.10825  -0.0127  0.0097  1.0000  -10.5999   0.0000   0.2385
  17.500   1.1246   0.11440   0.11195  -0.0148  0.0097  1.0000  -10.4816   0.0000   0.2403
  17.600   1.1149   0.11817   0.11578  -0.0169  0.0097  1.0000  -10.3533   0.0000   0.2422
  17.700   1.1048   0.12210   0.11977  -0.0192  0.0097  1.0000  -10.2115   0.0000   0.2443
  17.800   1.0938   0.12626   0.12398  -0.0216  0.0098  1.0000  -10.0497   0.0000   0.2465
  17.900   1.0815   0.13083   0.12861  -0.0242  0.0098  1.0000  -9.8545   0.0000   0.2491
  18.000   1.0662   0.13622   0.13408  -0.0274  0.0098  1.0000  -9.5927   0.0000   0.2523


