xflr5 v6.47

 Calculated polar for: NACA 0010

 1 1 Reynolds number fixed          Mach number fixed         

 xtrf =   1.000 (top)        1.000 (bottom)
 Mach =   0.000     Re =     2.000 e 6     Ncrit =   9.000

  alpha     CL        CD       CDp       Cm    Top Xtr Bot Xtr   Cpmin    Chinge    XCp    
 ------- -------- --------- --------- -------- ------- ------- -------- --------- ---------
 -20.000  -1.0795   0.17085   0.16924   0.0487  1.0000  0.0070  -10.1832   0.0000   0.2680
 -19.900  -1.0839   0.16793   0.16630   0.0468  1.0000  0.0070  -10.2860   0.0000   0.2662
 -19.800  -1.0899   0.16468   0.16303   0.0447  1.0000  0.0070  -10.4181   0.0000   0.2642
 -19.700  -1.0965   0.16131   0.15962   0.0425  1.0000  0.0071  -10.5570   0.0000   0.2620
 -19.600  -1.1033   0.15791   0.15620   0.0403  1.0000  0.0071  -10.6955   0.0000   0.2600
 -19.500  -1.1114   0.15424   0.15250   0.0380  1.0000  0.0071  -10.8532   0.0000   0.2577
 -19.400  -1.1208   0.15035   0.14858   0.0356  1.0000  0.0071  -11.0281   0.0000   0.2554
 -19.300  -1.1302   0.14652   0.14471   0.0332  1.0000  0.0071  -11.1945   0.0000   0.2532
 -19.200  -1.1421   0.14221   0.14036   0.0306  1.0000  0.0071  -11.4010   0.0000   0.2507
 -19.100  -1.1555   0.13761   0.13572   0.0278  1.0000  0.0070  -11.6258   0.0000   0.2481
 -19.000  -1.1705   0.13278   0.13084   0.0250  1.0000  0.0070  -11.8676   0.0000   0.2454
 -18.900  -1.1873   0.12772   0.12572   0.0220  1.0000  0.0070  -12.1275   0.0000   0.2427
 -18.800  -1.2056   0.12241   0.12036   0.0190  1.0000  0.0070  -12.4029   0.0000   0.2401
 -18.700  -1.2257   0.11685   0.11474   0.0159  1.0000  0.0069  -12.6952   0.0000   0.2374
 -18.600  -1.2453   0.11150   0.10932   0.0130  1.0000  0.0069  -12.9680   0.0000   0.2350
 -18.500  -1.2645   0.10628   0.10404   0.0101  1.0000  0.0068  -13.2246   0.0000   0.2327
 -18.400  -1.2824   0.10142   0.09911   0.0076  1.0000  0.0068  -13.4507   0.0000   0.2308
 -18.300  -1.2988   0.09687   0.09450   0.0052  1.0000  0.0068  -13.6480   0.0000   0.2290
 -18.200  -1.3139   0.09259   0.09016   0.0029  1.0000  0.0067  -13.8206   0.0000   0.2274
 -18.100  -1.3279   0.08857   0.08609   0.0008  1.0000  0.0067  -13.9711   0.0000   0.2260
 -18.000  -1.3435   0.08424   0.08170  -0.0015  1.0000  0.0067  -14.1415   0.0000   0.2245
 -17.900  -1.3699   0.07801   0.07538  -0.0050  1.0000  0.0066  -14.4667   0.0000   0.2222
 -17.800  -1.3920   0.07255   0.06985  -0.0081  1.0000  0.0066  -14.7250   0.0000   0.2202
 -17.700  -1.4103   0.06778   0.06500  -0.0109  1.0000  0.0066  -14.9257   0.0000   0.2185
 -17.600  -1.4253   0.06360   0.06075  -0.0134  1.0000  0.0066  -15.0750   0.0000   0.2171
 -17.500  -1.4377   0.05992   0.05699  -0.0157  1.0000  0.0066  -15.1848   0.0000   0.2158
 -17.400  -1.4479   0.05666   0.05366  -0.0177  1.0000  0.0066  -15.2613   0.0000   0.2148
 -17.300  -1.4563   0.05375   0.05069  -0.0195  1.0000  0.0066  -15.3098   0.0000   0.2139
 -17.200  -1.4632   0.05115   0.04803  -0.0211  1.0000  0.0066  -15.3362   0.0000   0.2131
 -17.100  -1.4688   0.04881   0.04563  -0.0225  1.0000  0.0066  -15.3436   0.0000   0.2125
 -17.000  -1.4733   0.04669   0.04346  -0.0237  1.0000  0.0066  -15.3344   0.0000   0.2119
 -16.900  -1.4769   0.04478   0.04150  -0.0248  1.0000  0.0066  -15.3133   0.0000   0.2115
 -16.800  -1.4798   0.04304   0.03971  -0.0256  1.0000  0.0066  -15.2821   0.0000   0.2112
 -16.700  -1.4819   0.04146   0.03808  -0.0264  1.0000  0.0066  -15.2404   0.0000   0.2110
 -16.600  -1.4834   0.04001   0.03658  -0.0270  1.0000  0.0067  -15.1902   0.0000   0.2108
 -16.500  -1.4844   0.03869   0.03522  -0.0274  1.0000  0.0067  -15.1323   0.0000   0.2108
 -16.400  -1.4897   0.03693   0.03339  -0.0279  1.0000  0.0067  -15.1269   0.0000   0.2107
 -16.300  -1.4945   0.03534   0.03174  -0.0282  1.0000  0.0067  -15.1126   0.0000   0.2108
 -16.200  -1.4983   0.03395   0.03030  -0.0283  1.0000  0.0068  -15.0848   0.0000   0.2111
 -16.100  -1.5012   0.03273   0.02902  -0.0281  1.0000  0.0068  -15.0445   0.0000   0.2114
 -16.000  -1.5032   0.03166   0.02790  -0.0278  1.0000  0.0068  -14.9923   0.0000   0.2118
 -15.900  -1.5044   0.03072   0.02692  -0.0274  1.0000  0.0069  -14.9296   0.0000   0.2123
 -15.800  -1.5048   0.02988   0.02604  -0.0269  1.0000  0.0069  -14.8572   0.0000   0.2129
 -15.700  -1.5045   0.02913   0.02526  -0.0264  1.0000  0.0070  -14.7766   0.0000   0.2134
 -15.600  -1.5037   0.02846   0.02455  -0.0257  1.0000  0.0070  -14.6888   0.0000   0.2140
 -15.500  -1.5023   0.02786   0.02391  -0.0251  1.0000  0.0070  -14.5950   0.0000   0.2147
 -15.400  -1.5005   0.02730   0.02333  -0.0243  1.0000  0.0071  -14.4961   0.0000   0.2153
 -15.300  -1.4983   0.02679   0.02278  -0.0236  1.0000  0.0071  -14.3928   0.0000   0.2160
 -15.200  -1.4957   0.02632   0.02228  -0.0228  1.0000  0.0071  -14.2856   0.0000   0.2167
 -15.100  -1.4928   0.02589   0.02182  -0.0220  1.0000  0.0072  -14.1753   0.0000   0.2174
 -15.000  -1.4897   0.02548   0.02138  -0.0212  1.0000  0.0072  -14.0624   0.0000   0.2181
 -14.900  -1.4863   0.02509   0.02097  -0.0203  1.0000  0.0073  -13.9472   0.0000   0.2188
 -14.800  -1.4826   0.02473   0.02058  -0.0195  1.0000  0.0073  -13.8292   0.0000   0.2195
 -14.700  -1.4784   0.02438   0.02021  -0.0187  1.0000  0.0074  -13.7076   0.0000   0.2202
 -14.600  -1.4735   0.02405   0.01985  -0.0180  1.0000  0.0074  -13.5794   0.0000   0.2208
 -14.500  -1.4677   0.02372   0.01950  -0.0174  1.0000  0.0075  -13.4447   0.0000   0.2213
 -14.400  -1.4616   0.02340   0.01915  -0.0169  1.0000  0.0075  -13.3079   0.0000   0.2218
 -14.300  -1.4553   0.02308   0.01881  -0.0164  1.0000  0.0076  -13.1698   0.0000   0.2223
 -14.200  -1.4488   0.02277   0.01847  -0.0159  1.0000  0.0076  -13.0307   0.0000   0.2227
 -14.100  -1.4421   0.02247   0.01814  -0.0155  1.0000  0.0077  -12.8907   0.0000   0.2232
 -14.000  -1.4352   0.02218   0.01782  -0.0150  1.0000  0.0078  -12.7499   0.0000   0.2236
 -13.900  -1.4281   0.02189   0.01751  -0.0146  1.0000  0.0078  -12.6084   0.0000   0.2240
 -13.800  -1.4208   0.02161   0.01720  -0.0142  1.0000  0.0079  -12.4661   0.0000   0.2244
 -13.700  -1.4134   0.02134   0.01690  -0.0138  1.0000  0.0079  -12.3232   0.0000   0.2248
 -13.600  -1.4058   0.02108   0.01661  -0.0134  1.0000  0.0080  -12.1795   0.0000   0.2252
 -13.500  -1.3981   0.02082   0.01633  -0.0131  1.0000  0.0080  -12.0350   0.0000   0.2256
 -13.400  -1.3901   0.02058   0.01607  -0.0127  1.0000  0.0081  -11.8894   0.0000   0.2259
 -13.300  -1.3834   0.02022   0.01567  -0.0122  1.0000  0.0081  -11.7590   0.0000   0.2264
 -13.200  -1.3776   0.01974   0.01515  -0.0116  1.0000  0.0082  -11.6424   0.0000   0.2269
 -13.100  -1.3708   0.01936   0.01475  -0.0112  1.0000  0.0083  -11.5126   0.0000   0.2274
 -13.000  -1.3633   0.01904   0.01440  -0.0108  1.0000  0.0084  -11.3753   0.0000   0.2278
 -12.900  -1.3554   0.01876   0.01410  -0.0104  1.0000  0.0085  -11.2339   0.0000   0.2282
 -12.800  -1.3472   0.01850   0.01383  -0.0101  1.0000  0.0086  -11.0903   0.0000   0.2286
 -12.700  -1.3388   0.01826   0.01357  -0.0098  1.0000  0.0087  -10.9454   0.0000   0.2289
 -12.600  -1.3302   0.01803   0.01333  -0.0095  1.0000  0.0088  -10.8000   0.0000   0.2292
 -12.500  -1.3215   0.01781   0.01309  -0.0092  1.0000  0.0088  -10.6545   0.0000   0.2295
 -12.400  -1.3128   0.01759   0.01286  -0.0090  1.0000  0.0089  -10.5095   0.0000   0.2299
 -12.300  -1.3040   0.01738   0.01263  -0.0087  1.0000  0.0090  -10.3649   0.0000   0.2302
 -12.200  -1.2951   0.01717   0.01240  -0.0084  1.0000  0.0091  -10.2209   0.0000   0.2305
 -12.100  -1.2862   0.01697   0.01217  -0.0082  1.0000  0.0092  -10.0773   0.0000   0.2308
 -12.000  -1.2771   0.01676   0.01195  -0.0079  1.0000  0.0093  -9.9341   0.0000   0.2311
 -11.900  -1.2680   0.01657   0.01174  -0.0077  1.0000  0.0094  -9.7912   0.0000   0.2314
 -11.800  -1.2588   0.01638   0.01153  -0.0075  1.0000  0.0095  -9.6482   0.0000   0.2317
 -11.700  -1.2495   0.01621   0.01134  -0.0073  1.0000  0.0095  -9.5052   0.0000   0.2320
 -11.600  -1.2401   0.01604   0.01115  -0.0070  1.0000  0.0096  -9.3678   0.0000   0.2322
 -11.500  -1.2314   0.01578   0.01087  -0.0068  1.0000  0.0097  -9.2407   0.0000   0.2326
 -11.400  -1.2232   0.01546   0.01053  -0.0064  1.0000  0.0099  -9.1196   0.0000   0.2330
 -11.300  -1.2142   0.01522   0.01027  -0.0061  1.0000  0.0101  -8.9900   0.0000   0.2333
 -11.200  -1.2050   0.01502   0.01006  -0.0059  1.0000  0.0102  -8.8571   0.0000   0.2336
 -11.100  -1.1956   0.01484   0.00987  -0.0057  1.0000  0.0103  -8.7230   0.0000   0.2339
 -11.000  -1.1861   0.01468   0.00970  -0.0055  1.0000  0.0105  -8.5888   0.0000   0.2342
 -10.900  -1.1765   0.01451   0.00952  -0.0053  1.0000  0.0106  -8.4553   0.0000   0.2344
 -10.800  -1.1668   0.01435   0.00935  -0.0051  1.0000  0.0108  -8.3229   0.0000   0.2347
 -10.700  -1.1572   0.01419   0.00918  -0.0049  1.0000  0.0109  -8.1917   0.0000   0.2350
 -10.600  -1.1475   0.01404   0.00901  -0.0047  1.0000  0.0110  -8.0613   0.0000   0.2352
 -10.500  -1.1377   0.01389   0.00884  -0.0045  1.0000  0.0111  -7.9314   0.0000   0.2355
 -10.400  -1.1279   0.01375   0.00869  -0.0044  1.0000  0.0113  -7.8017   0.0000   0.2358
 -10.300  -1.1180   0.01362   0.00854  -0.0042  1.0000  0.0114  -7.6721   0.0000   0.2360
 -10.200  -1.1089   0.01338   0.00829  -0.0039  1.0000  0.0115  -7.5527   0.0000   0.2364
 -10.100  -1.0997   0.01316   0.00805  -0.0036  1.0000  0.0118  -7.4324   0.0000   0.2367
 -10.000  -1.0901   0.01298   0.00787  -0.0034  1.0000  0.0120  -7.3082   0.0000   0.2370
  -9.900  -1.0804   0.01282   0.00771  -0.0032  1.0000  0.0122  -7.1830   0.0000   0.2373
  -9.800  -1.0706   0.01268   0.00755  -0.0030  1.0000  0.0124  -7.0579   0.0000   0.2376
  -9.700  -1.0607   0.01254   0.00741  -0.0029  1.0000  0.0125  -6.9333   0.0000   0.2378
  -9.600  -1.0508   0.01241   0.00727  -0.0027  1.0000  0.0127  -6.8098   0.0000   0.2381
  -9.500  -1.0409   0.01229   0.00713  -0.0025  1.0000  0.0129  -6.6870   0.0000   0.2384
  -9.400  -1.0309   0.01217   0.00700  -0.0023  1.0000  0.0131  -6.5646   0.0000   0.2387
  -9.300  -1.0208   0.01206   0.00689  -0.0021  1.0000  0.0133  -6.4425   0.0000   0.2389
  -9.200  -1.0113   0.01189   0.00671  -0.0019  1.0000  0.0135  -6.3267   0.0000   0.2393
  -9.100  -1.0018   0.01171   0.00652  -0.0016  1.0000  0.0139  -6.2166   0.0000   0.2397
  -9.000  -0.9921   0.01156   0.00637  -0.0014  1.0000  0.0141  -6.1050   0.0000   0.2400
  -8.900  -0.9824   0.01144   0.00624  -0.0011  1.0000  0.0144  -5.9933   0.0000   0.2403
  -8.800  -0.9726   0.01132   0.00612  -0.0009  1.0000  0.0147  -5.8825   0.0000   0.2407
  -8.700  -0.9627   0.01121   0.00600  -0.0007  1.0000  0.0149  -5.7726   0.0000   0.2410
  -8.600  -0.9529   0.01110   0.00589  -0.0004  1.0000  0.0152  -5.6638   0.0000   0.2414
  -8.500  -0.9431   0.01100   0.00578  -0.0002  1.0000  0.0154  -5.5556   0.0000   0.2418
  -8.400  -0.9336   0.01088   0.00565   0.0001  1.0000  0.0156  -5.4506   0.0000   0.2422
  -8.300  -0.9243   0.01072   0.00548   0.0004  1.0000  0.0161  -5.3492   0.0000   0.2427
  -8.200  -0.9149   0.01059   0.00536   0.0008  1.0000  0.0164  -5.2454   0.0000   0.2431
  -8.100  -0.9053   0.01048   0.00525   0.0011  1.0000  0.0168  -5.1415   0.0000   0.2436
  -8.000  -0.8957   0.01038   0.00514   0.0013  1.0000  0.0172  -5.0379   0.0000   0.2440
  -7.900  -0.8861   0.01029   0.00505   0.0016  1.0000  0.0175  -4.9350   0.0000   0.2445
  -7.800  -0.8764   0.01020   0.00495   0.0019  1.0000  0.0178  -4.8328   0.0000   0.2449
  -7.700  -0.8671   0.01008   0.00483   0.0023  1.0000  0.0183  -4.7347   0.0000   0.2455
  -7.600  -0.8579   0.00995   0.00470   0.0026  1.0000  0.0188  -4.6372   0.0000   0.2460
  -7.500  -0.8485   0.00985   0.00460   0.0030  1.0000  0.0193  -4.5390   0.0000   0.2466
  -7.400  -0.8391   0.00975   0.00451   0.0033  1.0000  0.0198  -4.4431   0.0000   0.2471
  -7.300  -0.8297   0.00967   0.00442   0.0037  1.0000  0.0202  -4.3511   0.0000   0.2477
  -7.200  -0.8202   0.00959   0.00433   0.0040  1.0000  0.0206  -4.2597   0.0000   0.2482
  -7.100  -0.8111   0.00947   0.00422   0.0044  1.0000  0.0213  -4.1722   0.0000   0.2489
  -7.000  -0.8020   0.00936   0.00412   0.0048  1.0000  0.0219  -4.0839   0.0000   0.2495
  -6.900  -0.7928   0.00927   0.00403   0.0052  1.0000  0.0226  -3.9956   0.0000   0.2502
  -6.800  -0.7835   0.00919   0.00395   0.0056  1.0000  0.0232  -3.9077   0.0000   0.2508
  -6.700  -0.7741   0.00913   0.00388   0.0060  1.0000  0.0237  -3.8201   0.0000   0.2515
  -6.600  -0.7643   0.00901   0.00377   0.0062  0.9999  0.0247  -3.7323   0.0000   0.2520
  -6.500  -0.7511   0.00890   0.00367   0.0057  0.9996  0.0258  -3.6308   0.0000   0.2516
  -6.400  -0.7379   0.00882   0.00359   0.0052  0.9992  0.0267  -3.5298   0.0000   0.2511
  -6.300  -0.7246   0.00873   0.00350   0.0047  0.9987  0.0276  -3.4301   0.0000   0.2507
  -6.200  -0.7115   0.00861   0.00340   0.0042  0.9983  0.0290  -3.3334   0.0000   0.2502
  -6.100  -0.6982   0.00852   0.00332   0.0037  0.9979  0.0303  -3.2404   0.0000   0.2497
  -6.000  -0.6848   0.00844   0.00324   0.0032  0.9974  0.0315  -3.1480   0.0000   0.2491
  -5.900  -0.6715   0.00833   0.00315   0.0027  0.9970  0.0334  -3.0572   0.0000   0.2485
  -5.800  -0.6580   0.00824   0.00307   0.0022  0.9966  0.0350  -2.9664   0.0000   0.2478
  -5.700  -0.6446   0.00815   0.00299   0.0016  0.9962  0.0369  -2.8770   0.0000   0.2472
  -5.600  -0.6318   0.00805   0.00290   0.0012  0.9955  0.0391  -2.7905   0.0000   0.2467
  -5.500  -0.6187   0.00797   0.00283   0.0008  0.9948  0.0409  -2.7039   0.0000   0.2461
  -5.400  -0.6057   0.00786   0.00275   0.0003  0.9940  0.0439  -2.6188   0.0000   0.2454
  -5.300  -0.5924   0.00778   0.00268  -0.0001  0.9934  0.0462  -2.5378   0.0000   0.2447
  -5.200  -0.5791   0.00767   0.00260  -0.0007  0.9927  0.0498  -2.4581   0.0000   0.2439
  -5.100  -0.5656   0.00759   0.00253  -0.0012  0.9921  0.0527  -2.3782   0.0000   0.2429
  -5.000  -0.5522   0.00749   0.00245  -0.0017  0.9915  0.0570  -2.2995   0.0000   0.2420
  -4.900  -0.5386   0.00740   0.00238  -0.0023  0.9910  0.0611  -2.2213   0.0000   0.2409
  -4.800  -0.5252   0.00730   0.00231  -0.0028  0.9903  0.0658  -2.1445   0.0000   0.2399
  -4.700  -0.5129   0.00720   0.00224  -0.0031  0.9889  0.0709  -2.0748   0.0000   0.2393
  -4.600  -0.5007   0.00711   0.00218  -0.0033  0.9871  0.0759  -2.0071   0.0000   0.2387
  -4.500  -0.4883   0.00702   0.00211  -0.0036  0.9855  0.0819  -1.9395   0.0000   0.2380
  -4.400  -0.4757   0.00692   0.00205  -0.0039  0.9840  0.0888  -1.8724   0.0000   0.2372
  -4.300  -0.4633   0.00682   0.00199  -0.0043  0.9824  0.0959  -1.8061   0.0000   0.2363
  -4.200  -0.4522   0.00673   0.00192  -0.0042  0.9794  0.1031  -1.7454   0.0000   0.2362
  -4.100  -0.4406   0.00663   0.00186  -0.0043  0.9768  0.1112  -1.6862   0.0000   0.2358
  -4.000  -0.4288   0.00654   0.00181  -0.0045  0.9745  0.1200  -1.6273   0.0000   0.2353
  -3.900  -0.4182   0.00645   0.00175  -0.0043  0.9707  0.1289  -1.5719   0.0000   0.2353
  -3.800  -0.4072   0.00635   0.00169  -0.0043  0.9673  0.1386  -1.5162   0.0000   0.2352
  -3.700  -0.3966   0.00626   0.00164  -0.0042  0.9635  0.1487  -1.4643   0.0000   0.2353
  -3.600  -0.3861   0.00617   0.00159  -0.0040  0.9592  0.1592  -1.4139   0.0000   0.2355
  -3.500  -0.3756   0.00609   0.00154  -0.0038  0.9550  0.1702  -1.3639   0.0000   0.2357
  -3.300  -0.3549   0.00591   0.00144  -0.0034  0.9453  0.1931  -1.2679   0.0000   0.2363
  -3.200  -0.3445   0.00583   0.00139  -0.0032  0.9398  0.2054  -1.2224   0.0000   0.2367
  -3.100  -0.3341   0.00575   0.00134  -0.0031  0.9343  0.2177  -1.1771   0.0000   0.2370
  -3.000  -0.3237   0.00567   0.00129  -0.0028  0.9285  0.2302  -1.1333   0.0000   0.2373
  -2.900  -0.3132   0.00560   0.00125  -0.0027  0.9222  0.2433  -1.0912   0.0000   0.2376
  -2.800  -0.3028   0.00553   0.00121  -0.0025  0.9159  0.2563  -1.0496   0.0000   0.2379
  -2.700  -0.2923   0.00546   0.00117  -0.0023  0.9090  0.2694  -1.0093   0.0000   0.2382
  -2.600  -0.2817   0.00539   0.00113  -0.0022  0.9019  0.2828  -0.9705   0.0000   0.2385
  -2.500  -0.2711   0.00533   0.00109  -0.0021  0.8946  0.2963  -0.9320   0.0000   0.2387
  -2.400  -0.2605   0.00527   0.00106  -0.0019  0.8869  0.3095  -0.8956   0.0000   0.2390
  -2.300  -0.2499   0.00521   0.00102  -0.0018  0.8788  0.3234  -0.8599   0.0000   0.2393
  -2.200  -0.2392   0.00516   0.00099  -0.0017  0.8704  0.3366  -0.8254   0.0000   0.2395
  -2.100  -0.2285   0.00511   0.00096  -0.0015  0.8617  0.3505  -0.7922   0.0000   0.2397
  -2.000  -0.2177   0.00506   0.00093  -0.0014  0.8528  0.3640  -0.7600   0.0000   0.2399
  -1.900  -0.2070   0.00501   0.00090  -0.0013  0.8436  0.3776  -0.7292   0.0000   0.2401
  -1.800  -0.1962   0.00497   0.00088  -0.0012  0.8341  0.3913  -0.6994   0.0000   0.2403
  -1.700  -0.1854   0.00494   0.00085  -0.0011  0.8243  0.4047  -0.6708   0.0000   0.2405
  -1.600  -0.1746   0.00490   0.00083  -0.0010  0.8142  0.4183  -0.6435   0.0000   0.2407
  -1.500  -0.1638   0.00487   0.00081  -0.0009  0.8039  0.4320  -0.6169   0.0000   0.2409
  -1.400  -0.1530   0.00484   0.00079  -0.0009  0.7934  0.4453  -0.5921   0.0000   0.2410
  -1.300  -0.1421   0.00481   0.00077  -0.0008  0.7825  0.4589  -0.5681   0.0000   0.2412
  -1.200  -0.1312   0.00479   0.00076  -0.0007  0.7716  0.4724  -0.5451   0.0000   0.2413
  -1.100  -0.1204   0.00476   0.00074  -0.0006  0.7605  0.4856  -0.5236   0.0000   0.2415
  -1.000  -0.1095   0.00474   0.00073  -0.0006  0.7492  0.4991  -0.5029   0.0000   0.2416
  -0.800  -0.0876   0.00471   0.00070  -0.0004  0.7260  0.5254  -0.4645   0.0000   0.2418
  -0.700  -0.0767   0.00469   0.00069  -0.0004  0.7142  0.5388  -0.4469   0.0000   0.2418
  -0.400  -0.0439   0.00466   0.00067  -0.0002  0.6782  0.5777  -0.3988   0.0000   0.2421
  -0.300  -0.0329   0.00466   0.00067  -0.0002  0.6659  0.5906  -0.3844   0.0000   0.2420
  -0.200  -0.0219   0.00465   0.00067  -0.0001  0.6535  0.6032  -0.3706   0.0000   0.2421
  -0.100  -0.0110   0.00465   0.00066  -0.0000  0.6411  0.6160  -0.3575   0.0000   0.2424
   0.000  -0.0000   0.00465   0.00066   0.0000  0.6287  0.6287  -0.3448   0.0000   0.3938
   0.100   0.0110   0.00465   0.00066   0.0000  0.6160  0.6411  -0.3575   0.0000   0.2424
   0.200   0.0219   0.00465   0.00067   0.0001  0.6032  0.6535  -0.3706   0.0000   0.2421
   0.300   0.0329   0.00466   0.00067   0.0002  0.5906  0.6659  -0.3844   0.0000   0.2420
   0.400   0.0439   0.00466   0.00067   0.0002  0.5777  0.6782  -0.3988   0.0000   0.2421
   0.700   0.0767   0.00469   0.00069   0.0004  0.5388  0.7142  -0.4469   0.0000   0.2418
   0.800   0.0876   0.00471   0.00070   0.0004  0.5254  0.7260  -0.4645   0.0000   0.2418
   1.000   0.1095   0.00474   0.00073   0.0006  0.4990  0.7492  -0.5029   0.0000   0.2416
   1.100   0.1204   0.00476   0.00074   0.0006  0.4856  0.7605  -0.5236   0.0000   0.2415
   1.200   0.1312   0.00479   0.00076   0.0007  0.4724  0.7716  -0.5451   0.0000   0.2413
   1.300   0.1421   0.00481   0.00077   0.0008  0.4589  0.7825  -0.5681   0.0000   0.2412
   1.400   0.1530   0.00484   0.00079   0.0009  0.4453  0.7934  -0.5921   0.0000   0.2410
   1.500   0.1638   0.00487   0.00081   0.0009  0.4320  0.8039  -0.6169   0.0000   0.2409
   1.600   0.1746   0.00490   0.00083   0.0010  0.4183  0.8142  -0.6435   0.0000   0.2407
   1.700   0.1854   0.00494   0.00085   0.0011  0.4047  0.8243  -0.6708   0.0000   0.2405
   1.800   0.1962   0.00497   0.00088   0.0012  0.3913  0.8341  -0.6994   0.0000   0.2403
   1.900   0.2070   0.00501   0.00090   0.0013  0.3776  0.8436  -0.7292   0.0000   0.2402
   2.000   0.2177   0.00506   0.00093   0.0014  0.3640  0.8528  -0.7600   0.0000   0.2399
   2.100   0.2285   0.00511   0.00096   0.0015  0.3505  0.8617  -0.7922   0.0000   0.2397
   2.200   0.2392   0.00516   0.00099   0.0017  0.3366  0.8704  -0.8254   0.0000   0.2395
   2.300   0.2499   0.00521   0.00102   0.0018  0.3234  0.8788  -0.8600   0.0000   0.2393
   2.400   0.2605   0.00527   0.00106   0.0019  0.3095  0.8869  -0.8956   0.0000   0.2390
   2.500   0.2711   0.00533   0.00109   0.0021  0.2963  0.8946  -0.9320   0.0000   0.2388
   2.600   0.2817   0.00539   0.00113   0.0022  0.2828  0.9019  -0.9705   0.0000   0.2385
   2.700   0.2923   0.00546   0.00117   0.0023  0.2694  0.9090  -1.0093   0.0000   0.2383
   2.800   0.3028   0.00553   0.00121   0.0025  0.2563  0.9159  -1.0496   0.0000   0.2379
   2.900   0.3132   0.00560   0.00125   0.0027  0.2433  0.9222  -1.0912   0.0000   0.2376
   3.000   0.3237   0.00567   0.00129   0.0028  0.2302  0.9285  -1.1333   0.0000   0.2373
   3.100   0.3341   0.00575   0.00134   0.0030  0.2177  0.9343  -1.1771   0.0000   0.2370
   3.200   0.3445   0.00583   0.00139   0.0032  0.2054  0.9398  -1.2224   0.0000   0.2367
   3.300   0.3549   0.00591   0.00144   0.0034  0.1931  0.9452  -1.2679   0.0000   0.2363
   3.500   0.3756   0.00609   0.00154   0.0038  0.1702  0.9550  -1.3639   0.0000   0.2357
   3.600   0.3861   0.00617   0.00159   0.0040  0.1592  0.9592  -1.4139   0.0000   0.2355
   3.700   0.3966   0.00626   0.00164   0.0042  0.1487  0.9635  -1.4644   0.0000   0.2353
   3.800   0.4072   0.00635   0.00169   0.0043  0.1386  0.9673  -1.5163   0.0000   0.2353
   3.900   0.4182   0.00645   0.00175   0.0043  0.1289  0.9707  -1.5720   0.0000   0.2353
   4.000   0.4288   0.00654   0.00181   0.0045  0.1200  0.9745  -1.6274   0.0000   0.2353
   4.100   0.4406   0.00663   0.00186   0.0043  0.1112  0.9768  -1.6862   0.0000   0.2358
   4.200   0.4522   0.00673   0.00192   0.0042  0.1031  0.9794  -1.7454   0.0000   0.2362
   4.300   0.4633   0.00682   0.00198   0.0042  0.0959  0.9824  -1.8061   0.0000   0.2363
   4.400   0.4758   0.00692   0.00205   0.0039  0.0888  0.9840  -1.8724   0.0000   0.2372
   4.500   0.4883   0.00702   0.00211   0.0036  0.0819  0.9855  -1.9395   0.0000   0.2380
   4.600   0.5007   0.00711   0.00218   0.0033  0.0759  0.9871  -2.0071   0.0000   0.2387
   4.700   0.5129   0.00720   0.00224   0.0031  0.0709  0.9889  -2.0748   0.0000   0.2393
   4.800   0.5252   0.00730   0.00231   0.0028  0.0658  0.9903  -2.1445   0.0000   0.2399
   4.900   0.5386   0.00740   0.00238   0.0023  0.0611  0.9910  -2.2214   0.0000   0.2409
   5.000   0.5522   0.00749   0.00245   0.0017  0.0570  0.9915  -2.2996   0.0000   0.2420
   5.100   0.5656   0.00759   0.00253   0.0012  0.0527  0.9921  -2.3783   0.0000   0.2430
   5.200   0.5791   0.00767   0.00260   0.0006  0.0498  0.9927  -2.4581   0.0000   0.2439
   5.300   0.5924   0.00778   0.00268   0.0001  0.0462  0.9934  -2.5379   0.0000   0.2447
   5.400   0.6057   0.00786   0.00275  -0.0003  0.0439  0.9941  -2.6188   0.0000   0.2454
   5.500   0.6187   0.00797   0.00283  -0.0008  0.0409  0.9948  -2.7040   0.0000   0.2461
   5.600   0.6318   0.00805   0.00290  -0.0012  0.0391  0.9955  -2.7905   0.0000   0.2467
   5.700   0.6446   0.00815   0.00299  -0.0016  0.0369  0.9962  -2.8770   0.0000   0.2472
   5.800   0.6581   0.00824   0.00307  -0.0022  0.0350  0.9966  -2.9664   0.0000   0.2478
   5.900   0.6715   0.00833   0.00315  -0.0027  0.0334  0.9970  -3.0573   0.0000   0.2485
   6.000   0.6848   0.00844   0.00324  -0.0032  0.0315  0.9974  -3.1481   0.0000   0.2491
   6.100   0.6982   0.00852   0.00332  -0.0037  0.0303  0.9979  -3.2404   0.0000   0.2497
   6.200   0.7115   0.00861   0.00340  -0.0042  0.0290  0.9983  -3.3335   0.0000   0.2502
   6.300   0.7247   0.00873   0.00350  -0.0047  0.0276  0.9988  -3.4302   0.0000   0.2507
   6.400   0.7379   0.00881   0.00359  -0.0052  0.0267  0.9992  -3.5299   0.0000   0.2511
   6.500   0.7511   0.00890   0.00367  -0.0057  0.0258  0.9996  -3.6309   0.0000   0.2516
   6.600   0.7643   0.00901   0.00377  -0.0062  0.0247  0.9999  -3.7324   0.0000   0.2520
   6.700   0.7741   0.00913   0.00388  -0.0059  0.0237  1.0000  -3.8198   0.0000   0.2515
   6.800   0.7834   0.00919   0.00395  -0.0056  0.0232  1.0000  -3.9073   0.0000   0.2508
   6.900   0.7927   0.00927   0.00403  -0.0052  0.0226  1.0000  -3.9953   0.0000   0.2502
   7.000   0.8019   0.00936   0.00411  -0.0048  0.0219  1.0000  -4.0836   0.0000   0.2495
   7.100   0.8110   0.00947   0.00422  -0.0044  0.0213  1.0000  -4.1719   0.0000   0.2489
   7.200   0.8201   0.00959   0.00433  -0.0040  0.0206  1.0000  -4.2594   0.0000   0.2482
   7.300   0.8296   0.00967   0.00442  -0.0037  0.0202  1.0000  -4.3508   0.0000   0.2477
   7.400   0.8390   0.00975   0.00451  -0.0033  0.0198  1.0000  -4.4428   0.0000   0.2471
   7.500   0.8484   0.00985   0.00460  -0.0030  0.0193  1.0000  -4.5387   0.0000   0.2465
   7.600   0.8578   0.00995   0.00470  -0.0026  0.0188  1.0000  -4.6369   0.0000   0.2460
   7.700   0.8670   0.01008   0.00483  -0.0023  0.0183  1.0000  -4.7344   0.0000   0.2454
   7.800   0.8764   0.01020   0.00495  -0.0019  0.0178  1.0000  -4.8325   0.0000   0.2449
   7.900   0.8860   0.01029   0.00504  -0.0016  0.0175  1.0000  -4.9348   0.0000   0.2445
   8.000   0.8957   0.01038   0.00514  -0.0013  0.0172  1.0000  -5.0377   0.0000   0.2440
   8.100   0.9053   0.01048   0.00524  -0.0010  0.0168  1.0000  -5.1413   0.0000   0.2436
   8.200   0.9148   0.01059   0.00536  -0.0007  0.0164  1.0000  -5.2452   0.0000   0.2431
   8.300   0.9243   0.01072   0.00548  -0.0004  0.0161  1.0000  -5.3490   0.0000   0.2427
   8.400   0.9335   0.01088   0.00565  -0.0001  0.0156  1.0000  -5.4505   0.0000   0.2422
   8.500   0.9431   0.01100   0.00578   0.0002  0.0154  1.0000  -5.5554   0.0000   0.2418
   8.600   0.9529   0.01110   0.00589   0.0004  0.0152  1.0000  -5.6637   0.0000   0.2414
   8.700   0.9627   0.01121   0.00600   0.0007  0.0149  1.0000  -5.7726   0.0000   0.2410
   8.800   0.9725   0.01132   0.00612   0.0009  0.0147  1.0000  -5.8824   0.0000   0.2407
   8.900   0.9824   0.01144   0.00624   0.0011  0.0144  1.0000  -5.9933   0.0000   0.2403
   9.000   0.9921   0.01156   0.00637   0.0014  0.0141  1.0000  -6.1050   0.0000   0.2400
   9.100   1.0018   0.01171   0.00652   0.0016  0.0139  1.0000  -6.2166   0.0000   0.2397
   9.200   1.0113   0.01189   0.00671   0.0019  0.0135  1.0000  -6.3267   0.0000   0.2393
   9.300   1.0209   0.01206   0.00689   0.0021  0.0133  1.0000  -6.4426   0.0000   0.2389
   9.400   1.0309   0.01217   0.00700   0.0023  0.0131  1.0000  -6.5648   0.0000   0.2387
   9.500   1.0409   0.01229   0.00713   0.0025  0.0129  1.0000  -6.6871   0.0000   0.2384
   9.600   1.0508   0.01241   0.00727   0.0027  0.0127  1.0000  -6.8099   0.0000   0.2381
   9.700   1.0607   0.01254   0.00741   0.0028  0.0125  1.0000  -6.9335   0.0000   0.2378
   9.800   1.0706   0.01268   0.00755   0.0030  0.0124  1.0000  -7.0581   0.0000   0.2376
   9.900   1.0804   0.01282   0.00771   0.0032  0.0122  1.0000  -7.1832   0.0000   0.2373
  10.000   1.0901   0.01298   0.00787   0.0034  0.0120  1.0000  -7.3084   0.0000   0.2370
  10.100   1.0997   0.01316   0.00805   0.0036  0.0118  1.0000  -7.4327   0.0000   0.2367
  10.200   1.1089   0.01338   0.00829   0.0039  0.0115  1.0000  -7.5530   0.0000   0.2364
  10.300   1.1181   0.01362   0.00854   0.0042  0.0114  1.0000  -7.6724   0.0000   0.2360
  10.400   1.1280   0.01375   0.00869   0.0043  0.0113  1.0000  -7.8020   0.0000   0.2358
  10.500   1.1378   0.01389   0.00884   0.0045  0.0111  1.0000  -7.9317   0.0000   0.2355
  10.600   1.1476   0.01404   0.00901   0.0047  0.0110  1.0000  -8.0617   0.0000   0.2352
  10.700   1.1573   0.01419   0.00918   0.0049  0.0109  1.0000  -8.1921   0.0000   0.2350
  10.800   1.1669   0.01435   0.00935   0.0051  0.0108  1.0000  -8.3234   0.0000   0.2347
  10.900   1.1765   0.01451   0.00952   0.0053  0.0106  1.0000  -8.4557   0.0000   0.2344
  11.000   1.1861   0.01468   0.00970   0.0055  0.0105  1.0000  -8.5893   0.0000   0.2342
  11.100   1.1957   0.01484   0.00987   0.0057  0.0103  1.0000  -8.7235   0.0000   0.2339
  11.200   1.2051   0.01502   0.01006   0.0059  0.0102  1.0000  -8.8576   0.0000   0.2336
  11.300   1.2143   0.01522   0.01027   0.0061  0.0101  1.0000  -8.9906   0.0000   0.2333
  11.400   1.2232   0.01547   0.01053   0.0064  0.0099  1.0000  -9.1202   0.0000   0.2330
  11.500   1.2315   0.01579   0.01087   0.0067  0.0097  1.0000  -9.2413   0.0000   0.2326
  11.600   1.2402   0.01604   0.01115   0.0070  0.0096  1.0000  -9.3685   0.0000   0.2322
  11.700   1.2496   0.01621   0.01134   0.0072  0.0095  1.0000  -9.5060   0.0000   0.2320
  11.800   1.2589   0.01639   0.01153   0.0074  0.0095  1.0000  -9.6490   0.0000   0.2317
  11.900   1.2682   0.01657   0.01174   0.0077  0.0094  1.0000  -9.7920   0.0000   0.2314
  12.000   1.2773   0.01677   0.01195   0.0079  0.0093  1.0000  -9.9350   0.0000   0.2311
  12.100   1.2863   0.01697   0.01217   0.0082  0.0092  1.0000  -10.0782   0.0000   0.2308
  12.200   1.2952   0.01717   0.01240   0.0084  0.0091  1.0000  -10.2218   0.0000   0.2305
  12.300   1.3041   0.01738   0.01263   0.0087  0.0090  1.0000  -10.3659   0.0000   0.2302
  12.400   1.3129   0.01759   0.01286   0.0089  0.0089  1.0000  -10.5105   0.0000   0.2299
  12.500   1.3217   0.01781   0.01309   0.0092  0.0088  1.0000  -10.6556   0.0000   0.2296
  12.600   1.3304   0.01803   0.01333   0.0095  0.0088  1.0000  -10.8011   0.0000   0.2292
  12.700   1.3389   0.01826   0.01357   0.0098  0.0087  1.0000  -10.9466   0.0000   0.2289
  12.800   1.3473   0.01850   0.01383   0.0101  0.0086  1.0000  -11.0915   0.0000   0.2286
  12.900   1.3555   0.01876   0.01410   0.0104  0.0085  1.0000  -11.2352   0.0000   0.2282
  13.000   1.3635   0.01904   0.01440   0.0107  0.0084  1.0000  -11.3766   0.0000   0.2278
  13.100   1.3710   0.01936   0.01475   0.0111  0.0083  1.0000  -11.5139   0.0000   0.2274
  13.200   1.3778   0.01974   0.01515   0.0116  0.0082  1.0000  -11.6437   0.0000   0.2270
  13.300   1.3835   0.02022   0.01568   0.0122  0.0081  1.0000  -11.7602   0.0000   0.2264
  13.400   1.3904   0.02058   0.01607   0.0127  0.0081  1.0000  -11.8911   0.0000   0.2260
  13.500   1.3983   0.02082   0.01634   0.0130  0.0080  1.0000  -12.0368   0.0000   0.2256
  13.600   1.4061   0.02108   0.01662   0.0134  0.0080  1.0000  -12.1813   0.0000   0.2252
  13.700   1.4137   0.02134   0.01691   0.0138  0.0079  1.0000  -12.3251   0.0000   0.2248
  13.800   1.4211   0.02161   0.01720   0.0141  0.0079  1.0000  -12.4681   0.0000   0.2244
  13.900   1.4283   0.02189   0.01751   0.0146  0.0078  1.0000  -12.6105   0.0000   0.2240
  14.000   1.4354   0.02218   0.01782   0.0150  0.0078  1.0000  -12.7521   0.0000   0.2236
  14.100   1.4423   0.02247   0.01814   0.0154  0.0077  1.0000  -12.8930   0.0000   0.2232
  14.200   1.4491   0.02277   0.01847   0.0159  0.0076  1.0000  -13.0332   0.0000   0.2228
  14.300   1.4556   0.02308   0.01881   0.0164  0.0076  1.0000  -13.1724   0.0000   0.2223
  14.400   1.4619   0.02340   0.01915   0.0168  0.0075  1.0000  -13.3106   0.0000   0.2218
  14.500   1.4680   0.02372   0.01950   0.0174  0.0075  1.0000  -13.4476   0.0000   0.2214
  14.600   1.4738   0.02405   0.01985   0.0179  0.0074  1.0000  -13.5825   0.0000   0.2209
  14.700   1.4788   0.02439   0.02021   0.0186  0.0074  1.0000  -13.7113   0.0000   0.2203
  14.800   1.4830   0.02473   0.02058   0.0194  0.0073  1.0000  -13.8332   0.0000   0.2196
  14.900   1.4868   0.02509   0.02097   0.0202  0.0073  1.0000  -13.9514   0.0000   0.2189
  15.000   1.4902   0.02548   0.02138   0.0211  0.0072  1.0000  -14.0669   0.0000   0.2181
  15.100   1.4934   0.02589   0.02182   0.0219  0.0072  1.0000  -14.1800   0.0000   0.2174
  15.200   1.4963   0.02632   0.02228   0.0227  0.0071  1.0000  -14.2906   0.0000   0.2167
  15.300   1.4989   0.02679   0.02278   0.0235  0.0071  1.0000  -14.3980   0.0000   0.2161
  15.400   1.5011   0.02730   0.02332   0.0242  0.0071  1.0000  -14.5014   0.0000   0.2154
  15.500   1.5030   0.02785   0.02391   0.0250  0.0070  1.0000  -14.6005   0.0000   0.2148
  15.600   1.5044   0.02846   0.02455   0.0256  0.0070  1.0000  -14.6945   0.0000   0.2141
  15.700   1.5052   0.02913   0.02525   0.0263  0.0070  1.0000  -14.7824   0.0000   0.2135
  15.800   1.5055   0.02988   0.02604   0.0268  0.0069  1.0000  -14.8630   0.0000   0.2129
  15.900   1.5051   0.03072   0.02692   0.0273  0.0069  1.0000  -14.9354   0.0000   0.2124
  16.000   1.5039   0.03166   0.02791   0.0277  0.0068  1.0000  -14.9980   0.0000   0.2119
  16.100   1.5019   0.03274   0.02903   0.0280  0.0068  1.0000  -15.0501   0.0000   0.2115
  16.200   1.4990   0.03396   0.03031   0.0281  0.0068  1.0000  -15.0901   0.0000   0.2112
  16.300   1.4951   0.03536   0.03176   0.0281  0.0067  1.0000  -15.1175   0.0000   0.2109
  16.400   1.4903   0.03696   0.03342   0.0278  0.0067  1.0000  -15.1312   0.0000   0.2108
  16.500   1.4856   0.03865   0.03518   0.0273  0.0067  1.0000  -15.1436   0.0000   0.2109
  16.600   1.4846   0.03997   0.03654   0.0268  0.0067  1.0000  -15.2020   0.0000   0.2109
  16.700   1.4832   0.04141   0.03802   0.0262  0.0066  1.0000  -15.2528   0.0000   0.2111
  16.800   1.4811   0.04299   0.03965   0.0255  0.0066  1.0000  -15.2951   0.0000   0.2113
  16.900   1.4783   0.04472   0.04143   0.0246  0.0066  1.0000  -15.3270   0.0000   0.2116
  17.000   1.4747   0.04663   0.04339   0.0236  0.0066  1.0000  -15.3492   0.0000   0.2120
  17.100   1.4703   0.04873   0.04556   0.0224  0.0066  1.0000  -15.3591   0.0000   0.2126
  17.200   1.4648   0.05107   0.04795   0.0210  0.0066  1.0000  -15.3527   0.0000   0.2132
  17.300   1.4579   0.05366   0.05060   0.0194  0.0066  1.0000  -15.3270   0.0000   0.2140
  17.400   1.4497   0.05656   0.05356   0.0176  0.0066  1.0000  -15.2794   0.0000   0.2149
  17.500   1.4396   0.05981   0.05688   0.0156  0.0066  1.0000  -15.2045   0.0000   0.2159
  17.600   1.4272   0.06348   0.06062   0.0133  0.0066  1.0000  -15.0956   0.0000   0.2172
  17.700   1.4123   0.06765   0.06486   0.0108  0.0066  1.0000  -14.9474   0.0000   0.2186
  17.800   1.3941   0.07240   0.06969   0.0080  0.0066  1.0000  -14.7487   0.0000   0.2203
  17.900   1.3722   0.07785   0.07522   0.0048  0.0066  1.0000  -14.4918   0.0000   0.2223
  18.000   1.3458   0.08406   0.08152   0.0014  0.0067  1.0000  -14.1675   0.0000   0.2246
  18.100   1.3286   0.08868   0.08621  -0.0011  0.0067  1.0000  -13.9721   0.0000   0.2263
  18.200   1.3147   0.09271   0.09029  -0.0032  0.0067  1.0000  -13.8223   0.0000   0.2277
  18.300   1.2996   0.09698   0.09461  -0.0055  0.0068  1.0000  -13.6507   0.0000   0.2292
  18.400   1.2833   0.10152   0.09922  -0.0079  0.0068  1.0000  -13.4544   0.0000   0.2310
  18.500   1.2655   0.10636   0.10412  -0.0104  0.0068  1.0000  -13.2301   0.0000   0.2329
  18.600   1.2464   0.11157   0.10939  -0.0132  0.0069  1.0000  -12.9743   0.0000   0.2352
  18.700   1.2268   0.11692   0.11480  -0.0162  0.0069  1.0000  -12.7022   0.0000   0.2376
  18.800   1.2068   0.12247   0.12041  -0.0193  0.0070  1.0000  -12.4108   0.0000   0.2403
  18.900   1.1885   0.12777   0.12578  -0.0223  0.0070  1.0000  -12.1359   0.0000   0.2429
  19.000   1.1717   0.13285   0.13091  -0.0252  0.0070  1.0000  -11.8756   0.0000   0.2456
  19.100   1.1567   0.13768   0.13579  -0.0281  0.0070  1.0000  -11.6335   0.0000   0.2482
  19.200   1.1433   0.14229   0.14044  -0.0309  0.0071  1.0000  -11.4083   0.0000   0.2508
  19.300   1.1313   0.14662   0.14482  -0.0335  0.0071  1.0000  -11.2010   0.0000   0.2533
  19.400   1.1218   0.15048   0.14870  -0.0358  0.0071  1.0000  -11.0332   0.0000   0.2556
  19.500   1.1125   0.15435   0.15261  -0.0383  0.0071  1.0000  -10.8595   0.0000   0.2579
  19.600   1.1043   0.15805   0.15634  -0.0406  0.0071  1.0000  -10.7000   0.0000   0.2602
  19.700   1.0975   0.16144   0.15976  -0.0428  0.0070  1.0000  -10.5629   0.0000   0.2622
  19.800   1.0909   0.16485   0.16319  -0.0449  0.0070  1.0000  -10.4220   0.0000   0.2644
  19.900   1.0850   0.16809   0.16646  -0.0470  0.0070  1.0000  -10.2914   0.0000   0.2664
  20.000   1.0805   0.17102   0.16941  -0.0489  0.0070  1.0000  -10.1876   0.0000   0.2682


