xflr5 v6.47

 Calculated polar for: NACA 0010

 1 1 Reynolds number fixed          Mach number fixed         

 xtrf =   1.000 (top)        1.000 (bottom)
 Mach =   0.000     Re =     3.000 e 6     Ncrit =   9.000

  alpha     CL        CD       CDp       Cm    Top Xtr Bot Xtr   Cpmin    Chinge    XCp    
 ------- -------- --------- --------- -------- ------- ------- -------- --------- ---------
 -20.000  -1.1665   0.15068   0.14905   0.0353  1.0000  0.0060  -12.1113   0.0000   0.2523
 -19.900  -1.1956   0.14266   0.14096   0.0303  1.0000  0.0059  -12.6522   0.0000   0.2473
 -19.800  -1.2326   0.13325   0.13144   0.0244  1.0000  0.0059  -13.3088   0.0000   0.2418
 -19.700  -1.2777   0.12269   0.12076   0.0181  1.0000  0.0058  -14.0652   0.0000   0.2362
 -19.600  -1.3166   0.11368   0.11164   0.0130  1.0000  0.0057  -14.6753   0.0000   0.2319
 -19.500  -1.3477   0.10633   0.10421   0.0089  1.0000  0.0056  -15.1326   0.0000   0.2288
 -19.400  -1.3737   0.10009   0.09788   0.0055  1.0000  0.0056  -15.4894   0.0000   0.2264
 -19.300  -1.3957   0.09463   0.09235   0.0026  1.0000  0.0055  -15.7750   0.0000   0.2244
 -19.200  -1.4150   0.08971   0.08737  -0.0001  1.0000  0.0055  -16.0108   0.0000   0.2227
 -19.100  -1.4326   0.08516   0.08275  -0.0025  1.0000  0.0054  -16.2135   0.0000   0.2212
 -19.000  -1.4515   0.08037   0.07790  -0.0052  1.0000  0.0054  -16.4336   0.0000   0.2197
 -18.900  -1.4821   0.07359   0.07101  -0.0090  1.0000  0.0054  -16.8244   0.0000   0.2174
 -18.800  -1.5043   0.06831   0.06564  -0.0121  1.0000  0.0054  -17.0833   0.0000   0.2157
 -18.700  -1.5214   0.06395   0.06121  -0.0147  1.0000  0.0054  -17.2630   0.0000   0.2143
 -18.600  -1.5350   0.06022   0.05740  -0.0169  1.0000  0.0054  -17.3877   0.0000   0.2132
 -18.500  -1.5460   0.05696   0.05408  -0.0189  1.0000  0.0054  -17.4729   0.0000   0.2123
 -18.400  -1.5550   0.05408   0.05114  -0.0206  1.0000  0.0054  -17.5271   0.0000   0.2116
 -18.300  -1.5624   0.05150   0.04851  -0.0221  1.0000  0.0054  -17.5559   0.0000   0.2110
 -18.200  -1.5685   0.04918   0.04614  -0.0234  1.0000  0.0054  -17.5645   0.0000   0.2104
 -18.100  -1.5735   0.04708   0.04399  -0.0245  1.0000  0.0054  -17.5568   0.0000   0.2100
 -18.000  -1.5775   0.04517   0.04203  -0.0255  1.0000  0.0054  -17.5335   0.0000   0.2097
 -17.900  -1.5807   0.04342   0.04024  -0.0263  1.0000  0.0054  -17.4982   0.0000   0.2095
 -17.800  -1.5832   0.04182   0.03859  -0.0270  1.0000  0.0054  -17.4528   0.0000   0.2093
 -17.700  -1.5851   0.04036   0.03708  -0.0276  1.0000  0.0054  -17.3977   0.0000   0.2092
 -17.600  -1.5892   0.03867   0.03534  -0.0282  1.0000  0.0054  -17.3715   0.0000   0.2091
 -17.500  -1.5938   0.03701   0.03363  -0.0287  1.0000  0.0055  -17.3501   0.0000   0.2091
 -17.400  -1.5976   0.03552   0.03208  -0.0289  1.0000  0.0055  -17.3166   0.0000   0.2093
 -17.300  -1.6006   0.03419   0.03070  -0.0290  1.0000  0.0055  -17.2716   0.0000   0.2095
 -17.200  -1.6029   0.03299   0.02946  -0.0290  1.0000  0.0056  -17.2164   0.0000   0.2098
 -17.100  -1.6044   0.03192   0.02835  -0.0288  1.0000  0.0056  -17.1511   0.0000   0.2101
 -17.000  -1.6054   0.03096   0.02734  -0.0285  1.0000  0.0056  -17.0774   0.0000   0.2105
 -16.900  -1.6058   0.03009   0.02644  -0.0281  1.0000  0.0057  -16.9953   0.0000   0.2110
 -16.800  -1.6056   0.02931   0.02561  -0.0277  1.0000  0.0057  -16.9062   0.0000   0.2115
 -16.700  -1.6050   0.02859   0.02486  -0.0271  1.0000  0.0057  -16.8107   0.0000   0.2120
 -16.600  -1.6039   0.02794   0.02418  -0.0266  1.0000  0.0058  -16.7112   0.0000   0.2126
 -16.500  -1.6024   0.02734   0.02355  -0.0259  1.0000  0.0058  -16.6093   0.0000   0.2131
 -16.400  -1.6005   0.02678   0.02297  -0.0253  1.0000  0.0058  -16.5031   0.0000   0.2137
 -16.300  -1.5983   0.02627   0.02243  -0.0245  1.0000  0.0059  -16.3930   0.0000   0.2144
 -16.200  -1.5959   0.02579   0.02192  -0.0238  1.0000  0.0059  -16.2799   0.0000   0.2150
 -16.100  -1.5932   0.02535   0.02145  -0.0230  1.0000  0.0059  -16.1640   0.0000   0.2157
 -16.000  -1.5902   0.02493   0.02100  -0.0222  1.0000  0.0059  -16.0456   0.0000   0.2163
 -15.900  -1.5871   0.02453   0.02059  -0.0214  1.0000  0.0060  -15.9250   0.0000   0.2170
 -15.800  -1.5837   0.02416   0.02019  -0.0206  1.0000  0.0060  -15.8023   0.0000   0.2177
 -15.700  -1.5801   0.02381   0.01982  -0.0197  1.0000  0.0060  -15.6774   0.0000   0.2184
 -15.600  -1.5762   0.02348   0.01946  -0.0188  1.0000  0.0061  -15.5503   0.0000   0.2191
 -15.500  -1.5720   0.02316   0.01912  -0.0180  1.0000  0.0061  -15.4197   0.0000   0.2198
 -15.400  -1.5669   0.02285   0.01879  -0.0173  1.0000  0.0062  -15.2820   0.0000   0.2204
 -15.300  -1.5610   0.02254   0.01845  -0.0167  1.0000  0.0062  -15.1383   0.0000   0.2209
 -15.200  -1.5549   0.02223   0.01813  -0.0162  1.0000  0.0062  -14.9922   0.0000   0.2214
 -15.100  -1.5485   0.02194   0.01781  -0.0157  1.0000  0.0063  -14.8447   0.0000   0.2218
 -15.000  -1.5419   0.02165   0.01750  -0.0152  1.0000  0.0063  -14.6960   0.0000   0.2223
 -14.900  -1.5351   0.02136   0.01719  -0.0148  1.0000  0.0064  -14.5462   0.0000   0.2227
 -14.800  -1.5281   0.02109   0.01689  -0.0143  1.0000  0.0064  -14.3954   0.0000   0.2232
 -14.700  -1.5210   0.02082   0.01660  -0.0139  1.0000  0.0064  -14.2436   0.0000   0.2236
 -14.600  -1.5137   0.02056   0.01632  -0.0135  1.0000  0.0065  -14.0909   0.0000   0.2240
 -14.500  -1.5062   0.02030   0.01605  -0.0131  1.0000  0.0065  -13.9373   0.0000   0.2244
 -14.400  -1.4986   0.02005   0.01578  -0.0127  1.0000  0.0065  -13.7829   0.0000   0.2248
 -14.300  -1.4908   0.01982   0.01552  -0.0124  1.0000  0.0066  -13.6278   0.0000   0.2252
 -14.200  -1.4828   0.01959   0.01527  -0.0120  1.0000  0.0066  -13.4719   0.0000   0.2255
 -14.100  -1.4747   0.01937   0.01503  -0.0117  1.0000  0.0066  -13.3148   0.0000   0.2259
 -14.000  -1.4664   0.01916   0.01481  -0.0114  1.0000  0.0067  -13.1568   0.0000   0.2262
 -13.900  -1.4590   0.01885   0.01448  -0.0110  1.0000  0.0067  -13.0116   0.0000   0.2266
 -13.800  -1.4522   0.01847   0.01406  -0.0105  1.0000  0.0068  -12.8761   0.0000   0.2271
 -13.700  -1.4447   0.01816   0.01373  -0.0101  1.0000  0.0069  -12.7323   0.0000   0.2275
 -13.600  -1.4368   0.01788   0.01343  -0.0097  1.0000  0.0070  -12.5831   0.0000   0.2279
 -13.500  -1.4286   0.01764   0.01317  -0.0094  1.0000  0.0071  -12.4307   0.0000   0.2283
 -13.400  -1.4201   0.01741   0.01293  -0.0091  1.0000  0.0072  -12.2768   0.0000   0.2286
 -13.300  -1.4115   0.01719   0.01270  -0.0088  1.0000  0.0073  -12.1222   0.0000   0.2289
 -13.200  -1.4028   0.01698   0.01248  -0.0085  1.0000  0.0073  -11.9675   0.0000   0.2292
 -13.100  -1.3940   0.01677   0.01226  -0.0083  1.0000  0.0074  -11.8129   0.0000   0.2296
 -13.000  -1.3851   0.01658   0.01205  -0.0080  1.0000  0.0075  -11.6583   0.0000   0.2299
 -12.900  -1.3761   0.01638   0.01184  -0.0078  1.0000  0.0075  -11.5042   0.0000   0.2302
 -12.800  -1.3671   0.01619   0.01164  -0.0075  1.0000  0.0076  -11.3504   0.0000   0.2305
 -12.700  -1.3580   0.01601   0.01144  -0.0073  1.0000  0.0077  -11.1971   0.0000   0.2308
 -12.600  -1.3488   0.01583   0.01124  -0.0071  1.0000  0.0077  -11.0442   0.0000   0.2311
 -12.500  -1.3396   0.01565   0.01105  -0.0069  1.0000  0.0078  -10.8917   0.0000   0.2314
 -12.400  -1.3303   0.01548   0.01086  -0.0067  1.0000  0.0079  -10.7394   0.0000   0.2316
 -12.300  -1.3209   0.01531   0.01068  -0.0065  1.0000  0.0079  -10.5874   0.0000   0.2319
 -12.200  -1.3115   0.01515   0.01051  -0.0063  1.0000  0.0080  -10.4357   0.0000   0.2322
 -12.100  -1.3019   0.01499   0.01034  -0.0061  1.0000  0.0080  -10.2842   0.0000   0.2325
 -12.000  -1.2924   0.01484   0.01018  -0.0059  1.0000  0.0081  -10.1329   0.0000   0.2327
 -11.900  -1.2836   0.01458   0.00990  -0.0056  1.0000  0.0082  -9.9945   0.0000   0.2331
 -11.800  -1.2747   0.01434   0.00964  -0.0053  1.0000  0.0084  -9.8544   0.0000   0.2334
 -11.700  -1.2654   0.01414   0.00943  -0.0051  1.0000  0.0085  -9.7155   0.0000   0.2337
 -11.600  -1.2560   0.01396   0.00924  -0.0049  1.0000  0.0086  -9.5760   0.0000   0.2340
 -11.500  -1.2464   0.01379   0.00906  -0.0047  1.0000  0.0087  -9.4360   0.0000   0.2343
 -11.400  -1.2368   0.01363   0.00889  -0.0045  1.0000  0.0088  -9.2959   0.0000   0.2345
 -11.300  -1.2271   0.01348   0.00873  -0.0043  1.0000  0.0089  -9.1563   0.0000   0.2348
 -11.200  -1.2173   0.01333   0.00858  -0.0041  1.0000  0.0090  -9.0172   0.0000   0.2351
 -11.100  -1.2075   0.01319   0.00842  -0.0040  1.0000  0.0091  -8.8786   0.0000   0.2353
 -11.000  -1.1977   0.01305   0.00828  -0.0038  1.0000  0.0093  -8.7404   0.0000   0.2356
 -10.900  -1.1877   0.01292   0.00814  -0.0037  1.0000  0.0094  -8.6027   0.0000   0.2358
 -10.800  -1.1778   0.01279   0.00800  -0.0035  1.0000  0.0095  -8.4654   0.0000   0.2361
 -10.700  -1.1678   0.01267   0.00787  -0.0034  1.0000  0.0095  -8.3285   0.0000   0.2363
 -10.600  -1.1577   0.01256   0.00775  -0.0032  1.0000  0.0096  -8.1921   0.0000   0.2365
 -10.500  -1.1481   0.01237   0.00755  -0.0030  1.0000  0.0098  -8.0639   0.0000   0.2368
 -10.400  -1.1386   0.01218   0.00735  -0.0028  1.0000  0.0100  -7.9363   0.0000   0.2372
 -10.300  -1.1288   0.01203   0.00719  -0.0026  1.0000  0.0102  -7.8062   0.0000   0.2374
 -10.200  -1.1189   0.01189   0.00705  -0.0024  1.0000  0.0104  -7.6755   0.0000   0.2377
 -10.100  -1.1090   0.01176   0.00691  -0.0022  1.0000  0.0105  -7.5451   0.0000   0.2380
 -10.000  -1.0990   0.01163   0.00678  -0.0021  1.0000  0.0107  -7.4154   0.0000   0.2382
  -9.900  -1.0890   0.01151   0.00666  -0.0019  1.0000  0.0108  -7.2863   0.0000   0.2385
  -9.800  -1.0789   0.01139   0.00654  -0.0017  1.0000  0.0110  -7.1580   0.0000   0.2388
  -9.700  -1.0688   0.01128   0.00642  -0.0016  1.0000  0.0111  -7.0306   0.0000   0.2390
  -9.600  -1.0587   0.01118   0.00631  -0.0014  1.0000  0.0112  -6.9039   0.0000   0.2393
  -9.500  -1.0486   0.01108   0.00620  -0.0012  1.0000  0.0113  -6.7778   0.0000   0.2396
  -9.400  -1.0388   0.01094   0.00605  -0.0010  1.0000  0.0115  -6.6568   0.0000   0.2399
  -9.300  -1.0292   0.01079   0.00589  -0.0008  1.0000  0.0118  -6.5375   0.0000   0.2403
  -9.200  -1.0194   0.01066   0.00577  -0.0006  1.0000  0.0121  -6.4169   0.0000   0.2406
  -9.100  -1.0096   0.01054   0.00565  -0.0003  1.0000  0.0123  -6.3016   0.0000   0.2409
  -9.000  -0.9997   0.01043   0.00554  -0.0001  1.0000  0.0125  -6.1872   0.0000   0.2413
  -8.900  -0.9899   0.01033   0.00544   0.0001  1.0000  0.0128  -6.0736   0.0000   0.2416
  -8.800  -0.9801   0.01024   0.00534   0.0004  1.0000  0.0130  -5.9608   0.0000   0.2420
  -8.700  -0.9703   0.01015   0.00525   0.0006  1.0000  0.0132  -5.8488   0.0000   0.2424
  -8.600  -0.9604   0.01007   0.00516   0.0009  1.0000  0.0133  -5.7376   0.0000   0.2428
  -8.500  -0.9510   0.00993   0.00502   0.0012  1.0000  0.0137  -5.6323   0.0000   0.2432
  -8.400  -0.9416   0.00982   0.00490   0.0015  1.0000  0.0140  -5.5257   0.0000   0.2437
  -8.300  -0.9320   0.00971   0.00480   0.0018  1.0000  0.0144  -5.4190   0.0000   0.2441
  -8.200  -0.9225   0.00962   0.00471   0.0021  1.0000  0.0146  -5.3129   0.0000   0.2446
  -8.100  -0.9129   0.00953   0.00461   0.0024  1.0000  0.0149  -5.2077   0.0000   0.2451
  -8.000  -0.9034   0.00944   0.00453   0.0028  1.0000  0.0152  -5.1032   0.0000   0.2456
  -7.900  -0.8938   0.00937   0.00445   0.0031  1.0000  0.0154  -4.9995   0.0000   0.2461
  -7.800  -0.8845   0.00927   0.00435   0.0035  1.0000  0.0158  -4.8987   0.0000   0.2466
  -7.700  -0.8753   0.00916   0.00424   0.0038  1.0000  0.0162  -4.7995   0.0000   0.2472
  -7.600  -0.8660   0.00906   0.00415   0.0042  1.0000  0.0167  -4.7000   0.0000   0.2478
  -7.500  -0.8568   0.00898   0.00407   0.0046  1.0000  0.0171  -4.6010   0.0000   0.2484
  -7.400  -0.8469   0.00890   0.00399   0.0048  1.0000  0.0175  -4.5002   0.0000   0.2488
  -7.300  -0.8340   0.00882   0.00391   0.0044  0.9997  0.0179  -4.3912   0.0000   0.2485
  -7.200  -0.8212   0.00871   0.00381   0.0040  0.9994  0.0185  -4.2852   0.0000   0.2482
  -7.100  -0.8085   0.00861   0.00371   0.0036  0.9990  0.0192  -4.1795   0.0000   0.2479
  -7.000  -0.7956   0.00852   0.00362   0.0032  0.9987  0.0198  -4.0741   0.0000   0.2476
  -6.900  -0.7827   0.00844   0.00354   0.0028  0.9983  0.0203  -3.9693   0.0000   0.2472
  -6.800  -0.7697   0.00836   0.00347   0.0024  0.9979  0.0208  -3.8655   0.0000   0.2468
  -6.700  -0.7568   0.00825   0.00337   0.0019  0.9976  0.0218  -3.7636   0.0000   0.2464
  -6.600  -0.7438   0.00816   0.00329   0.0015  0.9972  0.0227  -3.6618   0.0000   0.2459
  -6.500  -0.7308   0.00808   0.00322   0.0010  0.9969  0.0234  -3.5603   0.0000   0.2454
  -6.400  -0.7176   0.00800   0.00314   0.0006  0.9966  0.0244  -3.4603   0.0000   0.2449
  -6.300  -0.7046   0.00790   0.00305   0.0001  0.9962  0.0256  -3.3616   0.0000   0.2443
  -6.200  -0.6921   0.00782   0.00298  -0.0002  0.9956  0.0266  -3.2706   0.0000   0.2439
  -6.100  -0.6793   0.00775   0.00291  -0.0006  0.9949  0.0274  -3.1798   0.0000   0.2435
  -6.000  -0.6666   0.00765   0.00283  -0.0009  0.9943  0.0289  -3.0903   0.0000   0.2430
  -5.900  -0.6537   0.00757   0.00276  -0.0014  0.9936  0.0303  -3.0007   0.0000   0.2424
  -5.800  -0.6407   0.00749   0.00269  -0.0018  0.9930  0.0315  -2.9118   0.0000   0.2418
  -5.700  -0.6279   0.00740   0.00262  -0.0022  0.9922  0.0335  -2.8249   0.0000   0.2412
  -5.600  -0.6151   0.00732   0.00255  -0.0025  0.9913  0.0351  -2.7385   0.0000   0.2406
  -5.500  -0.6023   0.00724   0.00248  -0.0029  0.9905  0.0371  -2.6530   0.0000   0.2399
  -5.400  -0.5900   0.00716   0.00242  -0.0032  0.9892  0.0391  -2.5731   0.0000   0.2394
  -5.300  -0.5784   0.00710   0.00236  -0.0033  0.9871  0.0408  -2.4978   0.0000   0.2392
  -5.200  -0.5666   0.00701   0.00229  -0.0034  0.9853  0.0437  -2.4226   0.0000   0.2389
  -5.100  -0.5543   0.00694   0.00223  -0.0037  0.9837  0.0460  -2.3468   0.0000   0.2384
  -5.000  -0.5429   0.00686   0.00217  -0.0037  0.9814  0.0493  -2.2745   0.0000   0.2382
  -4.900  -0.5318   0.00679   0.00212  -0.0037  0.9784  0.0519  -2.2038   0.0000   0.2382
  -4.800  -0.5205   0.00671   0.00206  -0.0037  0.9758  0.0554  -2.1335   0.0000   0.2381
  -4.700  -0.5096   0.00665   0.00200  -0.0036  0.9727  0.0587  -2.0681   0.0000   0.2382
  -4.600  -0.4990   0.00657   0.00194  -0.0035  0.9689  0.0629  -2.0049   0.0000   0.2383
  -4.500  -0.4883   0.00651   0.00190  -0.0034  0.9655  0.0665  -1.9419   0.0000   0.2385
  -4.400  -0.4779   0.00643   0.00184  -0.0032  0.9612  0.0714  -1.8803   0.0000   0.2388
  -4.300  -0.4674   0.00637   0.00179  -0.0030  0.9571  0.0759  -1.8194   0.0000   0.2391
  -4.200  -0.4569   0.00630   0.00173  -0.0028  0.9524  0.0814  -1.7588   0.0000   0.2394
  -4.100  -0.4465   0.00623   0.00168  -0.0026  0.9477  0.0874  -1.7025   0.0000   0.2398
  -4.000  -0.4359   0.00616   0.00163  -0.0025  0.9425  0.0932  -1.6462   0.0000   0.2400
  -3.800  -0.4148   0.00603   0.00153  -0.0022  0.9314  0.1069  -1.5358   0.0000   0.2406
  -3.700  -0.4043   0.00596   0.00148  -0.0020  0.9257  0.1147  -1.4826   0.0000   0.2409
  -3.600  -0.3937   0.00590   0.00143  -0.0019  0.9193  0.1227  -1.4317   0.0000   0.2412
  -3.500  -0.3830   0.00583   0.00138  -0.0017  0.9128  0.1313  -1.3811   0.0000   0.2414
  -3.400  -0.3724   0.00577   0.00133  -0.0016  0.9061  0.1404  -1.3310   0.0000   0.2417
  -3.300  -0.3617   0.00571   0.00129  -0.0015  0.8989  0.1498  -1.2824   0.0000   0.2420
  -3.200  -0.3510   0.00565   0.00124  -0.0014  0.8915  0.1597  -1.2358   0.0000   0.2422
  -3.100  -0.3402   0.00559   0.00120  -0.0013  0.8839  0.1700  -1.1897   0.0000   0.2424
  -3.000  -0.3295   0.00553   0.00116  -0.0012  0.8759  0.1805  -1.1442   0.0000   0.2426
  -2.900  -0.3187   0.00548   0.00112  -0.0011  0.8676  0.1914  -1.1015   0.0000   0.2428
  -2.700  -0.2971   0.00537   0.00104  -0.0009  0.8501  0.2146  -1.0176   0.0000   0.2432
  -2.600  -0.2863   0.00532   0.00101  -0.0008  0.8409  0.2264  -0.9783   0.0000   0.2434
  -2.500  -0.2754   0.00527   0.00097  -0.0008  0.8316  0.2382  -0.9393   0.0000   0.2436
  -2.400  -0.2646   0.00522   0.00094  -0.0007  0.8219  0.2503  -0.9019   0.0000   0.2438
  -2.300  -0.2537   0.00518   0.00091  -0.0006  0.8121  0.2627  -0.8658   0.0000   0.2439
  -2.200  -0.2428   0.00514   0.00088  -0.0006  0.8020  0.2752  -0.8305   0.0000   0.2441
  -2.100  -0.2318   0.00510   0.00085  -0.0005  0.7918  0.2873  -0.7969   0.0000   0.2442
  -2.000  -0.2209   0.00506   0.00083  -0.0005  0.7814  0.3002  -0.7641   0.0000   0.2444
  -1.900  -0.2100   0.00503   0.00080  -0.0004  0.7707  0.3127  -0.7330   0.0000   0.2445
  -1.800  -0.1990   0.00500   0.00078  -0.0004  0.7601  0.3254  -0.7026   0.0000   0.2446
  -1.700  -0.1880   0.00496   0.00076  -0.0003  0.7492  0.3379  -0.6738   0.0000   0.2448
  -1.600  -0.1770   0.00493   0.00073  -0.0003  0.7382  0.3509  -0.6460   0.0000   0.2449
  -1.500  -0.1660   0.00491   0.00072  -0.0003  0.7270  0.3634  -0.6192   0.0000   0.2450
  -1.400  -0.1550   0.00488   0.00070  -0.0003  0.7157  0.3760  -0.5941   0.0000   0.2451
  -1.300  -0.1440   0.00485   0.00068  -0.0002  0.7043  0.3888  -0.5697   0.0000   0.2451
  -1.200  -0.1329   0.00483   0.00067  -0.0002  0.6928  0.4016  -0.5465   0.0000   0.2452
  -1.100  -0.1219   0.00482   0.00066  -0.0002  0.6814  0.4141  -0.5247   0.0000   0.2453
  -1.000  -0.1108   0.00480   0.00064  -0.0002  0.6699  0.4268  -0.5038   0.0000   0.2454
  -0.900  -0.0998   0.00478   0.00063  -0.0001  0.6583  0.4396  -0.4839   0.0000   0.2454
  -0.800  -0.0887   0.00477   0.00062  -0.0001  0.6465  0.4521  -0.4651   0.0000   0.2455
  -0.700  -0.0776   0.00475   0.00061  -0.0001  0.6347  0.4644  -0.4473   0.0000   0.2455
  -0.600  -0.0666   0.00474   0.00061  -0.0001  0.6228  0.4771  -0.4304   0.0000   0.2456
  -0.400  -0.0444   0.00473   0.00059  -0.0001  0.5992  0.5020  -0.3989   0.0000   0.2456
  -0.300  -0.0333   0.00472   0.00059  -0.0000  0.5872  0.5141  -0.3844   0.0000   0.2456
  -0.200  -0.0222   0.00471   0.00059  -0.0000  0.5751  0.5265  -0.3705   0.0000   0.2457
  -0.100  -0.0111   0.00471   0.00059  -0.0000  0.5630  0.5389  -0.3573   0.0000   0.2457
   0.000   0.0000   0.00471   0.00058  -0.0000  0.5510  0.5510  -0.3445   0.0000   0.4684
   0.100   0.0111   0.00471   0.00059   0.0000  0.5389  0.5630  -0.3573   0.0000   0.2457
   0.200   0.0222   0.00471   0.00059   0.0000  0.5265  0.5751  -0.3705   0.0000   0.2457
   0.300   0.0333   0.00472   0.00059   0.0000  0.5141  0.5872  -0.3844   0.0000   0.2456
   0.400   0.0444   0.00473   0.00059   0.0001  0.5020  0.5992  -0.3989   0.0000   0.2456
   0.600   0.0666   0.00474   0.00061   0.0001  0.4771  0.6228  -0.4304   0.0000   0.2456
   0.700   0.0776   0.00475   0.00061   0.0001  0.4644  0.6347  -0.4473   0.0000   0.2455
   0.800   0.0887   0.00477   0.00062   0.0001  0.4521  0.6465  -0.4651   0.0000   0.2455
   0.900   0.0998   0.00478   0.00063   0.0001  0.4396  0.6583  -0.4839   0.0000   0.2454
   1.000   0.1108   0.00480   0.00064   0.0002  0.4268  0.6699  -0.5038   0.0000   0.2454
   1.100   0.1219   0.00482   0.00066   0.0002  0.4141  0.6814  -0.5247   0.0000   0.2453
   1.200   0.1329   0.00483   0.00067   0.0002  0.4016  0.6928  -0.5465   0.0000   0.2452
   1.300   0.1440   0.00485   0.00068   0.0002  0.3888  0.7043  -0.5697   0.0000   0.2451
   1.400   0.1550   0.00488   0.00070   0.0003  0.3760  0.7157  -0.5941   0.0000   0.2451
   1.500   0.1660   0.00491   0.00072   0.0003  0.3634  0.7270  -0.6192   0.0000   0.2450
   1.600   0.1770   0.00493   0.00073   0.0003  0.3509  0.7382  -0.6460   0.0000   0.2449
   1.700   0.1880   0.00496   0.00076   0.0003  0.3379  0.7492  -0.6738   0.0000   0.2448
   1.800   0.1990   0.00500   0.00078   0.0004  0.3254  0.7601  -0.7026   0.0000   0.2447
   1.900   0.2100   0.00503   0.00080   0.0004  0.3127  0.7707  -0.7330   0.0000   0.2445
   2.000   0.2209   0.00506   0.00083   0.0005  0.3002  0.7814  -0.7641   0.0000   0.2444
   2.100   0.2318   0.00510   0.00085   0.0005  0.2873  0.7918  -0.7969   0.0000   0.2442
   2.200   0.2428   0.00514   0.00088   0.0006  0.2752  0.8020  -0.8305   0.0000   0.2441
   2.300   0.2537   0.00518   0.00091   0.0006  0.2627  0.8121  -0.8658   0.0000   0.2439
   2.400   0.2646   0.00522   0.00094   0.0007  0.2503  0.8219  -0.9019   0.0000   0.2438
   2.500   0.2754   0.00527   0.00097   0.0008  0.2382  0.8316  -0.9393   0.0000   0.2436
   2.600   0.2863   0.00532   0.00101   0.0008  0.2264  0.8409  -0.9783   0.0000   0.2434
   2.700   0.2971   0.00537   0.00104   0.0009  0.2146  0.8501  -1.0176   0.0000   0.2433
   2.900   0.3187   0.00548   0.00112   0.0011  0.1914  0.8676  -1.1015   0.0000   0.2429
   3.000   0.3295   0.00553   0.00116   0.0012  0.1805  0.8759  -1.1442   0.0000   0.2426
   3.100   0.3402   0.00559   0.00120   0.0013  0.1700  0.8838  -1.1897   0.0000   0.2424
   3.200   0.3510   0.00565   0.00124   0.0014  0.1597  0.8915  -1.2358   0.0000   0.2422
   3.300   0.3617   0.00571   0.00129   0.0015  0.1498  0.8989  -1.2824   0.0000   0.2420
   3.400   0.3724   0.00577   0.00133   0.0016  0.1404  0.9061  -1.3311   0.0000   0.2417
   3.500   0.3830   0.00583   0.00138   0.0017  0.1313  0.9128  -1.3811   0.0000   0.2414
   3.600   0.3937   0.00590   0.00143   0.0019  0.1227  0.9193  -1.4317   0.0000   0.2412
   3.700   0.4043   0.00596   0.00148   0.0020  0.1147  0.9257  -1.4827   0.0000   0.2409
   3.800   0.4148   0.00603   0.00153   0.0022  0.1069  0.9314  -1.5358   0.0000   0.2406
   4.000   0.4359   0.00616   0.00163   0.0025  0.0932  0.9425  -1.6463   0.0000   0.2400
   4.100   0.4466   0.00623   0.00168   0.0026  0.0874  0.9476  -1.7026   0.0000   0.2398
   4.200   0.4569   0.00630   0.00173   0.0028  0.0814  0.9524  -1.7588   0.0000   0.2394
   4.300   0.4674   0.00637   0.00179   0.0030  0.0759  0.9571  -1.8195   0.0000   0.2391
   4.400   0.4779   0.00643   0.00184   0.0032  0.0714  0.9612  -1.8804   0.0000   0.2388
   4.500   0.4884   0.00651   0.00190   0.0034  0.0665  0.9655  -1.9420   0.0000   0.2386
   4.600   0.4990   0.00657   0.00194   0.0035  0.0629  0.9689  -2.0049   0.0000   0.2384
   4.700   0.5096   0.00665   0.00200   0.0036  0.0587  0.9727  -2.0681   0.0000   0.2382
   4.800   0.5205   0.00671   0.00206   0.0037  0.0554  0.9758  -2.1336   0.0000   0.2381
   4.900   0.5318   0.00679   0.00212   0.0037  0.0519  0.9784  -2.2038   0.0000   0.2382
   5.000   0.5429   0.00686   0.00217   0.0037  0.0493  0.9814  -2.2745   0.0000   0.2382
   5.100   0.5543   0.00694   0.00223   0.0037  0.0460  0.9837  -2.3469   0.0000   0.2384
   5.200   0.5666   0.00701   0.00229   0.0034  0.0437  0.9853  -2.4227   0.0000   0.2389
   5.300   0.5784   0.00710   0.00236   0.0033  0.0408  0.9871  -2.4978   0.0000   0.2393
   5.400   0.5901   0.00716   0.00242   0.0032  0.0391  0.9892  -2.5732   0.0000   0.2395
   5.500   0.6023   0.00724   0.00248   0.0029  0.0370  0.9905  -2.6531   0.0000   0.2399
   5.600   0.6151   0.00732   0.00255   0.0025  0.0351  0.9913  -2.7385   0.0000   0.2406
   5.700   0.6279   0.00740   0.00262   0.0022  0.0335  0.9922  -2.8249   0.0000   0.2412
   5.800   0.6407   0.00749   0.00269   0.0018  0.0315  0.9930  -2.9118   0.0000   0.2418
   5.900   0.6537   0.00757   0.00276   0.0013  0.0303  0.9936  -3.0008   0.0000   0.2424
   6.000   0.6666   0.00765   0.00283   0.0009  0.0289  0.9943  -3.0903   0.0000   0.2430
   6.100   0.6793   0.00775   0.00291   0.0006  0.0274  0.9949  -3.1798   0.0000   0.2435
   6.200   0.6921   0.00782   0.00298   0.0002  0.0266  0.9956  -3.2707   0.0000   0.2440
   6.300   0.7046   0.00790   0.00305  -0.0001  0.0256  0.9963  -3.3617   0.0000   0.2443
   6.400   0.7177   0.00800   0.00314  -0.0006  0.0243  0.9966  -3.4604   0.0000   0.2449
   6.500   0.7308   0.00808   0.00322  -0.0011  0.0234  0.9969  -3.5604   0.0000   0.2454
   6.600   0.7439   0.00816   0.00329  -0.0015  0.0227  0.9972  -3.6619   0.0000   0.2459
   6.700   0.7569   0.00825   0.00337  -0.0019  0.0218  0.9976  -3.7638   0.0000   0.2464
   6.800   0.7698   0.00836   0.00347  -0.0024  0.0208  0.9979  -3.8656   0.0000   0.2468
   6.900   0.7827   0.00844   0.00354  -0.0028  0.0203  0.9983  -3.9694   0.0000   0.2472
   7.000   0.7957   0.00852   0.00362  -0.0032  0.0198  0.9987  -4.0742   0.0000   0.2476
   7.100   0.8085   0.00861   0.00371  -0.0036  0.0192  0.9990  -4.1796   0.0000   0.2479
   7.200   0.8213   0.00871   0.00381  -0.0040  0.0185  0.9994  -4.2854   0.0000   0.2483
   7.300   0.8340   0.00882   0.00391  -0.0044  0.0179  0.9997  -4.3914   0.0000   0.2486
   7.400   0.8469   0.00890   0.00399  -0.0048  0.0175  1.0000  -4.5003   0.0000   0.2489
   7.500   0.8567   0.00898   0.00407  -0.0046  0.0171  1.0000  -4.6006   0.0000   0.2484
   7.600   0.8660   0.00906   0.00415  -0.0042  0.0167  1.0000  -4.6996   0.0000   0.2478
   7.700   0.8752   0.00916   0.00424  -0.0038  0.0162  1.0000  -4.7991   0.0000   0.2472
   7.800   0.8844   0.00927   0.00435  -0.0034  0.0158  1.0000  -4.8984   0.0000   0.2466
   7.900   0.8937   0.00937   0.00445  -0.0031  0.0154  1.0000  -4.9992   0.0000   0.2461
   8.000   0.9033   0.00944   0.00453  -0.0028  0.0152  1.0000  -5.1029   0.0000   0.2456
   8.100   0.9129   0.00952   0.00461  -0.0024  0.0149  1.0000  -5.2074   0.0000   0.2451
   8.200   0.9224   0.00961   0.00471  -0.0021  0.0147  1.0000  -5.3127   0.0000   0.2446
   8.300   0.9320   0.00971   0.00480  -0.0018  0.0144  1.0000  -5.4187   0.0000   0.2441
   8.400   0.9415   0.00982   0.00490  -0.0015  0.0140  1.0000  -5.5255   0.0000   0.2437
   8.500   0.9510   0.00993   0.00502  -0.0012  0.0137  1.0000  -5.6321   0.0000   0.2432
   8.600   0.9604   0.01007   0.00516  -0.0009  0.0133  1.0000  -5.7374   0.0000   0.2428
   8.700   0.9702   0.01015   0.00525  -0.0006  0.0132  1.0000  -5.8487   0.0000   0.2424
   8.800   0.9800   0.01024   0.00534  -0.0004  0.0130  1.0000  -5.9606   0.0000   0.2420
   8.900   0.9899   0.01033   0.00544  -0.0001  0.0128  1.0000  -6.0734   0.0000   0.2416
   9.000   0.9997   0.01043   0.00554   0.0001  0.0125  1.0000  -6.1871   0.0000   0.2413
   9.100   1.0095   0.01054   0.00565   0.0003  0.0123  1.0000  -6.3015   0.0000   0.2409
   9.200   1.0194   0.01066   0.00577   0.0006  0.0121  1.0000  -6.4168   0.0000   0.2406
   9.300   1.0292   0.01079   0.00589   0.0008  0.0118  1.0000  -6.5375   0.0000   0.2403
   9.400   1.0389   0.01094   0.00605   0.0010  0.0115  1.0000  -6.6568   0.0000   0.2399
   9.500   1.0487   0.01108   0.00620   0.0012  0.0113  1.0000  -6.7779   0.0000   0.2396
   9.600   1.0588   0.01118   0.00631   0.0014  0.0112  1.0000  -6.9040   0.0000   0.2393
   9.700   1.0689   0.01128   0.00642   0.0016  0.0111  1.0000  -7.0307   0.0000   0.2390
   9.800   1.0789   0.01139   0.00654   0.0017  0.0110  1.0000  -7.1582   0.0000   0.2388
   9.900   1.0890   0.01151   0.00666   0.0019  0.0108  1.0000  -7.2865   0.0000   0.2385
  10.000   1.0990   0.01163   0.00678   0.0021  0.0107  1.0000  -7.4156   0.0000   0.2382
  10.100   1.1090   0.01176   0.00691   0.0022  0.0105  1.0000  -7.5453   0.0000   0.2380
  10.200   1.1189   0.01189   0.00705   0.0024  0.0104  1.0000  -7.6757   0.0000   0.2377
  10.300   1.1288   0.01203   0.00719   0.0026  0.0102  1.0000  -7.8065   0.0000   0.2374
  10.400   1.1386   0.01218   0.00735   0.0028  0.0100  1.0000  -7.9366   0.0000   0.2372
  10.500   1.1482   0.01237   0.00755   0.0030  0.0098  1.0000  -8.0642   0.0000   0.2369
  10.600   1.1577   0.01256   0.00775   0.0032  0.0096  1.0000  -8.1924   0.0000   0.2366
  10.700   1.1678   0.01267   0.00787   0.0033  0.0095  1.0000  -8.3289   0.0000   0.2363
  10.800   1.1778   0.01279   0.00800   0.0035  0.0095  1.0000  -8.4658   0.0000   0.2361
  10.900   1.1878   0.01292   0.00814   0.0036  0.0094  1.0000  -8.6031   0.0000   0.2358
  11.000   1.1977   0.01305   0.00828   0.0038  0.0093  1.0000  -8.7409   0.0000   0.2356
  11.100   1.2076   0.01319   0.00842   0.0040  0.0091  1.0000  -8.8791   0.0000   0.2353
  11.200   1.2174   0.01333   0.00858   0.0041  0.0090  1.0000  -9.0177   0.0000   0.2351
  11.300   1.2272   0.01348   0.00873   0.0043  0.0089  1.0000  -9.1569   0.0000   0.2348
  11.400   1.2369   0.01363   0.00889   0.0045  0.0088  1.0000  -9.2965   0.0000   0.2346
  11.500   1.2465   0.01379   0.00906   0.0047  0.0087  1.0000  -9.4365   0.0000   0.2343
  11.600   1.2561   0.01396   0.00924   0.0049  0.0086  1.0000  -9.5766   0.0000   0.2340
  11.700   1.2655   0.01414   0.00943   0.0051  0.0085  1.0000  -9.7161   0.0000   0.2337
  11.800   1.2748   0.01434   0.00964   0.0053  0.0084  1.0000  -9.8550   0.0000   0.2334
  11.900   1.2837   0.01458   0.00990   0.0056  0.0082  1.0000  -9.9952   0.0000   0.2331
  12.000   1.2925   0.01484   0.01018   0.0059  0.0081  1.0000  -10.1337   0.0000   0.2327
  12.100   1.3021   0.01499   0.01034   0.0060  0.0080  1.0000  -10.2850   0.0000   0.2325
  12.200   1.3116   0.01515   0.01051   0.0062  0.0080  1.0000  -10.4365   0.0000   0.2322
  12.300   1.3210   0.01531   0.01068   0.0064  0.0079  1.0000  -10.5883   0.0000   0.2319
  12.400   1.3304   0.01548   0.01087   0.0066  0.0079  1.0000  -10.7403   0.0000   0.2317
  12.500   1.3397   0.01565   0.01105   0.0068  0.0078  1.0000  -10.8926   0.0000   0.2314
  12.600   1.3490   0.01583   0.01124   0.0071  0.0077  1.0000  -11.0452   0.0000   0.2311
  12.700   1.3581   0.01601   0.01144   0.0073  0.0077  1.0000  -11.1981   0.0000   0.2308
  12.800   1.3672   0.01619   0.01164   0.0075  0.0076  1.0000  -11.3515   0.0000   0.2305
  12.900   1.3763   0.01638   0.01184   0.0078  0.0075  1.0000  -11.5053   0.0000   0.2302
  13.000   1.3853   0.01658   0.01205   0.0080  0.0075  1.0000  -11.6595   0.0000   0.2299
  13.100   1.3942   0.01678   0.01226   0.0083  0.0074  1.0000  -11.8140   0.0000   0.2296
  13.200   1.4030   0.01698   0.01248   0.0085  0.0073  1.0000  -11.9687   0.0000   0.2293
  13.300   1.4117   0.01719   0.01270   0.0088  0.0073  1.0000  -12.1235   0.0000   0.2289
  13.400   1.4203   0.01741   0.01293   0.0091  0.0072  1.0000  -12.2781   0.0000   0.2286
  13.500   1.4287   0.01764   0.01317   0.0094  0.0071  1.0000  -12.4321   0.0000   0.2283
  13.600   1.4370   0.01788   0.01343   0.0097  0.0070  1.0000  -12.5845   0.0000   0.2279
  13.700   1.4449   0.01816   0.01373   0.0100  0.0069  1.0000  -12.7337   0.0000   0.2275
  13.800   1.4524   0.01848   0.01407   0.0104  0.0068  1.0000  -12.8775   0.0000   0.2271
  13.900   1.4592   0.01886   0.01448   0.0109  0.0067  1.0000  -13.0131   0.0000   0.2267
  14.000   1.4666   0.01916   0.01481   0.0113  0.0067  1.0000  -13.1586   0.0000   0.2263
  14.100   1.4749   0.01937   0.01503   0.0116  0.0066  1.0000  -13.3167   0.0000   0.2259
  14.200   1.4830   0.01959   0.01527   0.0120  0.0066  1.0000  -13.4738   0.0000   0.2256
  14.300   1.4910   0.01982   0.01552   0.0123  0.0066  1.0000  -13.6298   0.0000   0.2252
  14.400   1.4988   0.02006   0.01578   0.0127  0.0065  1.0000  -13.7850   0.0000   0.2248
  14.500   1.5064   0.02030   0.01605   0.0130  0.0065  1.0000  -13.9395   0.0000   0.2244
  14.600   1.5139   0.02056   0.01632   0.0134  0.0065  1.0000  -14.0931   0.0000   0.2240
  14.700   1.5213   0.02082   0.01660   0.0138  0.0064  1.0000  -14.2459   0.0000   0.2236
  14.800   1.5284   0.02109   0.01689   0.0143  0.0064  1.0000  -14.3979   0.0000   0.2232
  14.900   1.5354   0.02136   0.01719   0.0147  0.0064  1.0000  -14.5488   0.0000   0.2228
  15.000   1.5422   0.02165   0.01750   0.0152  0.0063  1.0000  -14.6988   0.0000   0.2223
  15.100   1.5488   0.02194   0.01781   0.0157  0.0063  1.0000  -14.8476   0.0000   0.2219
  15.200   1.5552   0.02224   0.01813   0.0161  0.0062  1.0000  -14.9952   0.0000   0.2214
  15.300   1.5614   0.02254   0.01846   0.0167  0.0062  1.0000  -15.1415   0.0000   0.2209
  15.400   1.5673   0.02285   0.01879   0.0172  0.0062  1.0000  -15.2855   0.0000   0.2204
  15.500   1.5724   0.02317   0.01912   0.0179  0.0061  1.0000  -15.4238   0.0000   0.2199
  15.600   1.5767   0.02348   0.01946   0.0187  0.0061  1.0000  -15.5548   0.0000   0.2192
  15.700   1.5806   0.02382   0.01982   0.0196  0.0060  1.0000  -15.6822   0.0000   0.2185
  15.800   1.5843   0.02416   0.02019   0.0204  0.0060  1.0000  -15.8073   0.0000   0.2178
  15.900   1.5877   0.02453   0.02059   0.0213  0.0060  1.0000  -15.9303   0.0000   0.2171
  16.000   1.5909   0.02493   0.02100   0.0221  0.0059  1.0000  -16.0512   0.0000   0.2164
  16.100   1.5938   0.02535   0.02145   0.0229  0.0059  1.0000  -16.1699   0.0000   0.2157
  16.200   1.5966   0.02579   0.02192   0.0237  0.0059  1.0000  -16.2860   0.0000   0.2151
  16.300   1.5990   0.02627   0.02242   0.0244  0.0059  1.0000  -16.3994   0.0000   0.2144
  16.400   1.6012   0.02678   0.02296   0.0251  0.0058  1.0000  -16.5097   0.0000   0.2138
  16.500   1.6031   0.02733   0.02354   0.0258  0.0058  1.0000  -16.6162   0.0000   0.2132
  16.600   1.6046   0.02793   0.02417   0.0264  0.0058  1.0000  -16.7183   0.0000   0.2126
  16.700   1.6057   0.02858   0.02486   0.0270  0.0057  1.0000  -16.8182   0.0000   0.2121
  16.800   1.6064   0.02930   0.02561   0.0275  0.0057  1.0000  -16.9139   0.0000   0.2116
  16.900   1.6066   0.03009   0.02643   0.0280  0.0057  1.0000  -17.0031   0.0000   0.2111
  17.000   1.6062   0.03095   0.02734   0.0284  0.0056  1.0000  -17.0853   0.0000   0.2106
  17.100   1.6053   0.03192   0.02834   0.0287  0.0056  1.0000  -17.1591   0.0000   0.2102
  17.200   1.6037   0.03299   0.02946   0.0288  0.0055  1.0000  -17.2244   0.0000   0.2098
  17.300   1.6014   0.03418   0.03070   0.0289  0.0055  1.0000  -17.2797   0.0000   0.2096
  17.400   1.5984   0.03552   0.03209   0.0288  0.0055  1.0000  -17.3245   0.0000   0.2094
  17.500   1.5947   0.03701   0.03363   0.0285  0.0055  1.0000  -17.3578   0.0000   0.2092
  17.600   1.5901   0.03868   0.03535   0.0280  0.0054  1.0000  -17.3789   0.0000   0.2092
  17.700   1.5865   0.04030   0.03702   0.0275  0.0054  1.0000  -17.4126   0.0000   0.2093
  17.800   1.5847   0.04176   0.03853   0.0269  0.0054  1.0000  -17.4686   0.0000   0.2094
  17.900   1.5822   0.04335   0.04016   0.0262  0.0054  1.0000  -17.5147   0.0000   0.2096
  18.000   1.5791   0.04509   0.04195   0.0253  0.0054  1.0000  -17.5507   0.0000   0.2098
  18.100   1.5752   0.04699   0.04390   0.0243  0.0054  1.0000  -17.5750   0.0000   0.2101
  18.200   1.5703   0.04909   0.04604   0.0232  0.0054  1.0000  -17.5840   0.0000   0.2105
  18.300   1.5642   0.05139   0.04840   0.0219  0.0054  1.0000  -17.5763   0.0000   0.2111
  18.400   1.5570   0.05396   0.05103   0.0204  0.0054  1.0000  -17.5486   0.0000   0.2117
  18.500   1.5481   0.05683   0.05395   0.0187  0.0054  1.0000  -17.4964   0.0000   0.2124
  18.600   1.5371   0.06007   0.05725   0.0168  0.0054  1.0000  -17.4126   0.0000   0.2133
  18.700   1.5237   0.06378   0.06103   0.0146  0.0054  1.0000  -17.2903   0.0000   0.2144
  18.800   1.5067   0.06812   0.06545   0.0120  0.0054  1.0000  -17.1126   0.0000   0.2158
  18.900   1.4849   0.07335   0.07077   0.0089  0.0054  1.0000  -16.8582   0.0000   0.2174
  19.000   1.4547   0.08006   0.07759   0.0051  0.0054  1.0000  -16.4733   0.0000   0.2197
  19.100   1.4334   0.08527   0.08286   0.0022  0.0054  1.0000  -16.2173   0.0000   0.2215
  19.200   1.4159   0.08981   0.08747  -0.0002  0.0055  1.0000  -16.0154   0.0000   0.2229
  19.300   1.3967   0.09472   0.09245  -0.0029  0.0055  1.0000  -15.7801   0.0000   0.2246
  19.400   1.3746   0.10019   0.09798  -0.0058  0.0056  1.0000  -15.4949   0.0000   0.2266
  19.500   1.3489   0.10640   0.10428  -0.0092  0.0056  1.0000  -15.1400   0.0000   0.2290
  19.600   1.3177   0.11375   0.11171  -0.0133  0.0057  1.0000  -14.6832   0.0000   0.2321
  19.700   1.2790   0.12274   0.12081  -0.0184  0.0058  1.0000  -14.0759   0.0000   0.2364
  19.800   1.2340   0.13331   0.13151  -0.0247  0.0059  1.0000  -13.3194   0.0000   0.2420
  19.900   1.1968   0.14274   0.14104  -0.0305  0.0059  1.0000  -12.6608   0.0000   0.2475
  20.000   1.1675   0.15082   0.14919  -0.0356  0.0060  1.0000  -12.1157   0.0000   0.2525


