xflr5 v6.47

 Calculated polar for: NACA 0010

 1 1 Reynolds number fixed          Mach number fixed         

 xtrf =   1.000 (top)        1.000 (bottom)
 Mach =   0.000     Re =     4.000 e 6     Ncrit =   9.000

  alpha     CL        CD       CDp       Cm    Top Xtr Bot Xtr   Cpmin    Chinge    XCp    
 ------- -------- --------- --------- -------- ------- ------- -------- --------- ---------
 -23.000  -1.0612   0.23586   0.23489   0.0949  1.0000  0.0047  -8.6968   0.0000   0.3080
 -22.900  -1.0631   0.23307   0.23209   0.0929  1.0000  0.0048  -8.8523   0.0000   0.3059
 -22.800  -1.0636   0.23071   0.22972   0.0911  1.0000  0.0048  -8.9471   0.0000   0.3044
 -22.700  -1.0636   0.22861   0.22761   0.0896  1.0000  0.0049  -9.0134   0.0000   0.3031
 -22.600  -1.0645   0.22622   0.22521   0.0879  1.0000  0.0049  -9.1102   0.0000   0.3015
 -22.500  -1.0669   0.22333   0.22230   0.0858  1.0000  0.0050  -9.2624   0.0000   0.2994
 -22.400  -1.0673   0.22116   0.22012   0.0842  1.0000  0.0050  -9.3307   0.0000   0.2980
 -22.300  -1.0680   0.21893   0.21788   0.0825  1.0000  0.0050  -9.4061   0.0000   0.2965
 -22.200  -1.0712   0.21586   0.21478   0.0803  1.0000  0.0051  -9.5680   0.0000   0.2943
 -22.100  -1.0720   0.21362   0.21253   0.0787  1.0000  0.0051  -9.6373   0.0000   0.2929
 -22.000  -1.0727   0.21141   0.21031   0.0771  1.0000  0.0051  -9.7022   0.0000   0.2914
 -21.900  -1.0761   0.20839   0.20726   0.0749  1.0000  0.0052  -9.8516   0.0000   0.2893
 -21.800  -1.0779   0.20587   0.20473   0.0731  1.0000  0.0052  -9.9407   0.0000   0.2876
 -21.700  -1.0790   0.20359   0.20243   0.0714  1.0000  0.0052  -10.0058   0.0000   0.2861
 -21.600  -1.0814   0.20094   0.19977   0.0695  1.0000  0.0053  -10.1069   0.0000   0.2843
 -21.500  -1.0858   0.19776   0.19656   0.0673  1.0000  0.0053  -10.2597   0.0000   0.2821
 -21.400  -1.0879   0.19527   0.19406   0.0655  1.0000  0.0053  -10.3395   0.0000   0.2805
 -21.300  -1.0914   0.19242   0.19119   0.0635  1.0000  0.0053  -10.4536   0.0000   0.2785
 -21.200  -1.0975   0.18892   0.18767   0.0610  1.0000  0.0053  -10.6305   0.0000   0.2761
 -21.100  -1.1010   0.18613   0.18485   0.0591  1.0000  0.0053  -10.7335   0.0000   0.2742
 -21.000  -1.1098   0.18197   0.18066   0.0562  1.0000  0.0053  -10.9670   0.0000   0.2713
 -20.900  -1.1153   0.17875   0.17742   0.0539  1.0000  0.0054  -11.1050   0.0000   0.2691
 -20.800  -1.1274   0.17387   0.17250   0.0506  1.0000  0.0054  -11.3974   0.0000   0.2657
 -20.700  -1.1417   0.16858   0.16716   0.0470  1.0000  0.0053  -11.7226   0.0000   0.2620
 -20.600  -1.1636   0.16170   0.16023   0.0424  1.0000  0.0053  -12.1947   0.0000   0.2572
 -20.500  -1.2036   0.15090   0.14932   0.0352  1.0000  0.0053  -13.0131   0.0000   0.2499
 -20.400  -1.3001   0.12921   0.12742   0.0214  1.0000  0.0052  -14.8153   0.0000   0.2367
 -20.300  -1.3972   0.10921   0.10717   0.0096  1.0000  0.0050  -16.4435   0.0000   0.2270
 -20.200  -1.4554   0.09722   0.09502   0.0027  1.0000  0.0049  -17.3358   0.0000   0.2222
 -20.100  -1.4962   0.08859   0.08627  -0.0021  1.0000  0.0049  -17.9195   0.0000   0.2191
 -20.000  -1.5273   0.08182   0.07939  -0.0059  1.0000  0.0049  -18.3352   0.0000   0.2169
 -19.900  -1.5517   0.07624   0.07373  -0.0091  1.0000  0.0048  -18.6406   0.0000   0.2152
 -19.800  -1.5721   0.07144   0.06885  -0.0118  1.0000  0.0048  -18.8769   0.0000   0.2138
 -19.700  -1.5891   0.06723   0.06457  -0.0142  1.0000  0.0048  -19.0566   0.0000   0.2126
 -19.600  -1.6034   0.06351   0.06078  -0.0163  1.0000  0.0048  -19.1935   0.0000   0.2117
 -19.500  -1.6155   0.06017   0.05738  -0.0182  1.0000  0.0048  -19.2943   0.0000   0.2109
 -19.400  -1.6259   0.05715   0.05430  -0.0199  1.0000  0.0048  -19.3670   0.0000   0.2102
 -19.300  -1.6347   0.05441   0.05151  -0.0214  1.0000  0.0048  -19.4153   0.0000   0.2096
 -19.200  -1.6422   0.05190   0.04895  -0.0228  1.0000  0.0048  -19.4431   0.0000   0.2091
 -19.100  -1.6486   0.04961   0.04661  -0.0240  1.0000  0.0048  -19.4525   0.0000   0.2087
 -19.000  -1.6541   0.04751   0.04446  -0.0251  1.0000  0.0048  -19.4466   0.0000   0.2083
 -18.900  -1.6587   0.04557   0.04248  -0.0260  1.0000  0.0048  -19.4277   0.0000   0.2081
 -18.800  -1.6624   0.04378   0.04065  -0.0268  1.0000  0.0049  -19.3961   0.0000   0.2079
 -18.700  -1.6656   0.04213   0.03896  -0.0275  1.0000  0.0049  -19.3544   0.0000   0.2078
 -18.600  -1.6682   0.04060   0.03739  -0.0281  1.0000  0.0049  -19.3039   0.0000   0.2077
 -18.500  -1.6702   0.03918   0.03593  -0.0286  1.0000  0.0049  -19.2453   0.0000   0.2077
 -18.400  -1.6717   0.03786   0.03457  -0.0290  1.0000  0.0049  -19.1786   0.0000   0.2077
 -18.300  -1.6728   0.03664   0.03332  -0.0292  1.0000  0.0049  -19.1055   0.0000   0.2078
 -18.200  -1.6736   0.03551   0.03215  -0.0294  1.0000  0.0049  -19.0266   0.0000   0.2080
 -18.100  -1.6739   0.03445   0.03106  -0.0295  1.0000  0.0050  -18.9416   0.0000   0.2082
 -18.000  -1.6738   0.03347   0.03004  -0.0295  1.0000  0.0050  -18.8518   0.0000   0.2084
 -17.900  -1.6736   0.03255   0.02909  -0.0294  1.0000  0.0050  -18.7582   0.0000   0.2087
 -17.800  -1.6730   0.03169   0.02820  -0.0293  1.0000  0.0050  -18.6601   0.0000   0.2090
 -17.700  -1.6721   0.03088   0.02736  -0.0290  1.0000  0.0050  -18.5584   0.0000   0.2094
 -17.600  -1.6710   0.03013   0.02658  -0.0287  1.0000  0.0050  -18.4536   0.0000   0.2098
 -17.500  -1.6697   0.02943   0.02585  -0.0284  1.0000  0.0051  -18.3454   0.0000   0.2102
 -17.400  -1.6681   0.02877   0.02516  -0.0280  1.0000  0.0051  -18.2344   0.0000   0.2106
 -17.300  -1.6664   0.02815   0.02451  -0.0275  1.0000  0.0051  -18.1208   0.0000   0.2111
 -17.200  -1.6644   0.02756   0.02390  -0.0270  1.0000  0.0051  -18.0044   0.0000   0.2116
 -17.100  -1.6623   0.02701   0.02332  -0.0264  1.0000  0.0051  -17.8859   0.0000   0.2121
 -17.000  -1.6599   0.02650   0.02278  -0.0258  1.0000  0.0052  -17.7648   0.0000   0.2127
 -16.900  -1.6573   0.02601   0.02227  -0.0252  1.0000  0.0052  -17.6418   0.0000   0.2133
 -16.800  -1.6546   0.02555   0.02178  -0.0245  1.0000  0.0052  -17.5164   0.0000   0.2139
 -16.700  -1.6517   0.02512   0.02133  -0.0238  1.0000  0.0052  -17.3893   0.0000   0.2145
 -16.600  -1.6485   0.02471   0.02090  -0.0230  1.0000  0.0052  -17.2602   0.0000   0.2151
 -16.500  -1.6453   0.02433   0.02049  -0.0223  1.0000  0.0053  -17.1326   0.0000   0.2157
 -16.400  -1.6418   0.02396   0.02010  -0.0215  1.0000  0.0053  -17.0046   0.0000   0.2164
 -16.300  -1.6382   0.02362   0.01973  -0.0206  1.0000  0.0053  -16.8749   0.0000   0.2171
 -16.200  -1.6344   0.02329   0.01938  -0.0198  1.0000  0.0053  -16.7436   0.0000   0.2177
 -16.100  -1.6304   0.02298   0.01905  -0.0189  1.0000  0.0053  -16.6106   0.0000   0.2184
 -16.000  -1.6261   0.02269   0.01874  -0.0181  1.0000  0.0054  -16.4748   0.0000   0.2191
 -15.900  -1.6213   0.02241   0.01843  -0.0173  1.0000  0.0054  -16.3344   0.0000   0.2197
 -15.800  -1.6155   0.02213   0.01814  -0.0167  1.0000  0.0054  -16.1850   0.0000   0.2203
 -15.700  -1.6092   0.02185   0.01784  -0.0162  1.0000  0.0054  -16.0317   0.0000   0.2207
 -15.600  -1.6026   0.02159   0.01756  -0.0157  1.0000  0.0054  -15.8762   0.0000   0.2212
 -15.500  -1.5964   0.02128   0.01722  -0.0152  1.0000  0.0054  -15.7275   0.0000   0.2217
 -15.400  -1.5912   0.02087   0.01678  -0.0145  1.0000  0.0055  -15.5944   0.0000   0.2222
 -15.300  -1.5854   0.02049   0.01638  -0.0140  1.0000  0.0056  -15.4544   0.0000   0.2228
 -15.200  -1.5792   0.02015   0.01601  -0.0134  1.0000  0.0056  -15.3090   0.0000   0.2232
 -15.100  -1.5725   0.01984   0.01568  -0.0129  1.0000  0.0057  -15.1590   0.0000   0.2237
 -15.000  -1.5655   0.01954   0.01537  -0.0125  1.0000  0.0058  -15.0056   0.0000   0.2241
 -14.900  -1.5582   0.01927   0.01508  -0.0121  1.0000  0.0058  -14.8496   0.0000   0.2246
 -14.800  -1.5507   0.01901   0.01480  -0.0117  1.0000  0.0059  -14.6917   0.0000   0.2250
 -14.700  -1.5429   0.01876   0.01453  -0.0113  1.0000  0.0059  -14.5324   0.0000   0.2253
 -14.600  -1.5351   0.01852   0.01428  -0.0109  1.0000  0.0060  -14.3720   0.0000   0.2257
 -14.500  -1.5271   0.01829   0.01403  -0.0106  1.0000  0.0060  -14.2110   0.0000   0.2261
 -14.400  -1.5189   0.01806   0.01379  -0.0103  1.0000  0.0061  -14.0496   0.0000   0.2264
 -14.300  -1.5107   0.01784   0.01356  -0.0100  1.0000  0.0061  -13.8879   0.0000   0.2268
 -14.200  -1.5023   0.01762   0.01333  -0.0097  1.0000  0.0062  -13.7260   0.0000   0.2271
 -14.100  -1.4938   0.01742   0.01311  -0.0094  1.0000  0.0062  -13.5640   0.0000   0.2275
 -14.000  -1.4853   0.01721   0.01289  -0.0091  1.0000  0.0063  -13.4020   0.0000   0.2278
 -13.900  -1.4766   0.01701   0.01268  -0.0088  1.0000  0.0063  -13.2401   0.0000   0.2281
 -13.800  -1.4679   0.01682   0.01247  -0.0085  1.0000  0.0064  -13.0784   0.0000   0.2285
 -13.700  -1.4590   0.01663   0.01227  -0.0083  1.0000  0.0064  -12.9166   0.0000   0.2288
 -13.600  -1.4501   0.01644   0.01207  -0.0080  1.0000  0.0065  -12.7547   0.0000   0.2291
 -13.500  -1.4411   0.01626   0.01188  -0.0078  1.0000  0.0065  -12.5928   0.0000   0.2294
 -13.400  -1.4320   0.01609   0.01170  -0.0076  1.0000  0.0066  -12.4309   0.0000   0.2297
 -13.300  -1.4229   0.01592   0.01152  -0.0073  1.0000  0.0066  -12.2692   0.0000   0.2300
 -13.200  -1.4136   0.01576   0.01135  -0.0071  1.0000  0.0066  -12.1076   0.0000   0.2303
 -13.100  -1.4043   0.01560   0.01118  -0.0069  1.0000  0.0067  -11.9463   0.0000   0.2305
 -13.000  -1.3951   0.01543   0.01099  -0.0067  1.0000  0.0067  -11.7881   0.0000   0.2308
 -12.900  -1.3867   0.01516   0.01070  -0.0064  1.0000  0.0068  -11.6422   0.0000   0.2312
 -12.800  -1.3778   0.01493   0.01045  -0.0061  1.0000  0.0069  -11.4922   0.0000   0.2315
 -12.700  -1.3688   0.01472   0.01023  -0.0059  1.0000  0.0070  -11.3397   0.0000   0.2319
 -12.600  -1.3596   0.01453   0.01003  -0.0056  1.0000  0.0071  -11.1858   0.0000   0.2322
 -12.500  -1.3503   0.01435   0.00984  -0.0054  1.0000  0.0072  -11.0311   0.0000   0.2324
 -12.400  -1.3408   0.01418   0.00967  -0.0052  1.0000  0.0073  -10.8763   0.0000   0.2327
 -12.300  -1.3313   0.01402   0.00949  -0.0050  1.0000  0.0074  -10.7217   0.0000   0.2330
 -12.200  -1.3218   0.01386   0.00933  -0.0048  1.0000  0.0075  -10.5676   0.0000   0.2333
 -12.100  -1.3122   0.01370   0.00917  -0.0047  1.0000  0.0075  -10.4140   0.0000   0.2335
 -12.000  -1.3025   0.01356   0.00901  -0.0045  1.0000  0.0076  -10.2608   0.0000   0.2338
 -11.900  -1.2928   0.01341   0.00886  -0.0043  1.0000  0.0077  -10.1083   0.0000   0.2341
 -11.800  -1.2830   0.01327   0.00871  -0.0042  1.0000  0.0078  -9.9567   0.0000   0.2343
 -11.700  -1.2732   0.01313   0.00856  -0.0040  1.0000  0.0078  -9.8114   0.0000   0.2346
 -11.600  -1.2633   0.01300   0.00842  -0.0038  1.0000  0.0079  -9.6666   0.0000   0.2348
 -11.500  -1.2534   0.01287   0.00828  -0.0037  1.0000  0.0080  -9.5223   0.0000   0.2351
 -11.400  -1.2434   0.01274   0.00815  -0.0035  1.0000  0.0080  -9.3784   0.0000   0.2353
 -11.300  -1.2334   0.01262   0.00802  -0.0034  1.0000  0.0081  -9.2350   0.0000   0.2355
 -11.200  -1.2238   0.01245   0.00783  -0.0032  1.0000  0.0082  -9.0986   0.0000   0.2358
 -11.100  -1.2142   0.01226   0.00764  -0.0030  1.0000  0.0084  -8.9637   0.0000   0.2361
 -11.000  -1.2045   0.01210   0.00747  -0.0028  1.0000  0.0085  -8.8267   0.0000   0.2364
 -10.900  -1.1946   0.01196   0.00732  -0.0026  1.0000  0.0087  -8.6888   0.0000   0.2367
 -10.800  -1.1846   0.01183   0.00719  -0.0025  1.0000  0.0088  -8.5509   0.0000   0.2369
 -10.700  -1.1746   0.01170   0.00706  -0.0023  1.0000  0.0089  -8.4133   0.0000   0.2372
 -10.600  -1.1646   0.01157   0.00693  -0.0022  1.0000  0.0090  -8.2762   0.0000   0.2374
 -10.500  -1.1545   0.01145   0.00681  -0.0020  1.0000  0.0092  -8.1398   0.0000   0.2377
 -10.400  -1.1444   0.01134   0.00669  -0.0019  1.0000  0.0093  -8.0040   0.0000   0.2379
 -10.300  -1.1342   0.01123   0.00657  -0.0018  1.0000  0.0094  -7.8690   0.0000   0.2382
 -10.200  -1.1241   0.01113   0.00646  -0.0016  1.0000  0.0095  -7.7349   0.0000   0.2384
 -10.100  -1.1139   0.01103   0.00636  -0.0015  1.0000  0.0096  -7.6015   0.0000   0.2387
 -10.000  -1.1037   0.01093   0.00625  -0.0013  1.0000  0.0096  -7.4690   0.0000   0.2389
  -9.900  -1.0939   0.01077   0.00609  -0.0011  1.0000  0.0099  -7.3441   0.0000   0.2392
  -9.800  -1.0841   0.01063   0.00595  -0.0009  1.0000  0.0101  -7.2172   0.0000   0.2395
  -9.700  -1.0741   0.01051   0.00582  -0.0007  1.0000  0.0103  -7.0898   0.0000   0.2398
  -9.600  -1.0641   0.01040   0.00571  -0.0006  1.0000  0.0105  -6.9628   0.0000   0.2401
  -9.500  -1.0541   0.01029   0.00560  -0.0004  1.0000  0.0107  -6.8366   0.0000   0.2404
  -9.400  -1.0441   0.01019   0.00550  -0.0002  1.0000  0.0108  -6.7115   0.0000   0.2407
  -9.300  -1.0341   0.01009   0.00540   0.0000  1.0000  0.0110  -6.5874   0.0000   0.2410
  -9.200  -1.0242   0.01000   0.00530   0.0002  1.0000  0.0112  -6.4642   0.0000   0.2414
  -9.100  -1.0142   0.00991   0.00521   0.0005  1.0000  0.0113  -6.3473   0.0000   0.2417
  -9.000  -1.0043   0.00982   0.00512   0.0007  1.0000  0.0114  -6.2315   0.0000   0.2421
  -8.900  -0.9948   0.00970   0.00500   0.0010  1.0000  0.0117  -6.1208   0.0000   0.2425
  -8.800  -0.9852   0.00959   0.00488   0.0013  1.0000  0.0120  -6.0099   0.0000   0.2429
  -8.700  -0.9756   0.00949   0.00478   0.0016  1.0000  0.0122  -5.8985   0.0000   0.2433
  -8.600  -0.9660   0.00939   0.00469   0.0019  1.0000  0.0125  -5.7877   0.0000   0.2438
  -8.500  -0.9564   0.00930   0.00460   0.0022  1.0000  0.0128  -5.6778   0.0000   0.2442
  -8.400  -0.9468   0.00922   0.00452   0.0025  1.0000  0.0130  -5.5688   0.0000   0.2447
  -8.300  -0.9372   0.00914   0.00444   0.0028  1.0000  0.0132  -5.4607   0.0000   0.2452
  -8.200  -0.9276   0.00907   0.00436   0.0031  1.0000  0.0133  -5.3535   0.0000   0.2456
  -8.100  -0.9184   0.00897   0.00426   0.0035  1.0000  0.0137  -5.2504   0.0000   0.2462
  -8.000  -0.9091   0.00887   0.00416   0.0039  1.0000  0.0141  -5.1476   0.0000   0.2468
  -7.900  -0.8983   0.00877   0.00407   0.0039  0.9999  0.0144  -5.0370   0.0000   0.2470
  -7.800  -0.8857   0.00868   0.00399   0.0035  0.9996  0.0148  -4.9187   0.0000   0.2467
  -7.700  -0.8731   0.00859   0.00390   0.0032  0.9994  0.0151  -4.8013   0.0000   0.2465
  -7.600  -0.8605   0.00852   0.00382   0.0028  0.9991  0.0154  -4.6846   0.0000   0.2462
  -7.500  -0.8478   0.00843   0.00374   0.0024  0.9988  0.0158  -4.5699   0.0000   0.2459
  -7.400  -0.8352   0.00832   0.00364   0.0021  0.9984  0.0164  -4.4600   0.0000   0.2456
  -7.300  -0.8226   0.00823   0.00356   0.0017  0.9981  0.0170  -4.3522   0.0000   0.2453
  -7.200  -0.8098   0.00815   0.00348   0.0013  0.9977  0.0175  -4.2451   0.0000   0.2450
  -7.100  -0.7970   0.00807   0.00341   0.0009  0.9974  0.0178  -4.1385   0.0000   0.2446
  -7.000  -0.7842   0.00799   0.00332   0.0005  0.9971  0.0185  -4.0339   0.0000   0.2442
  -6.900  -0.7714   0.00789   0.00324   0.0001  0.9968  0.0192  -3.9299   0.0000   0.2438
  -6.800  -0.7584   0.00781   0.00316  -0.0003  0.9965  0.0199  -3.8264   0.0000   0.2433
  -6.700  -0.7455   0.00773   0.00309  -0.0007  0.9962  0.0204  -3.7238   0.0000   0.2428
  -6.600  -0.7331   0.00766   0.00302  -0.0010  0.9956  0.0210  -3.6246   0.0000   0.2425
  -6.500  -0.7207   0.00757   0.00294  -0.0013  0.9949  0.0220  -3.5266   0.0000   0.2422
  -6.400  -0.7083   0.00749   0.00287  -0.0016  0.9941  0.0229  -3.4293   0.0000   0.2418
  -6.300  -0.6959   0.00742   0.00281  -0.0019  0.9931  0.0236  -3.3343   0.0000   0.2414
  -6.200  -0.6836   0.00734   0.00274  -0.0022  0.9922  0.0247  -3.2443   0.0000   0.2410
  -6.100  -0.6711   0.00726   0.00267  -0.0025  0.9912  0.0259  -3.1546   0.0000   0.2406
  -6.000  -0.6584   0.00719   0.00261  -0.0028  0.9903  0.0268  -3.0649   0.0000   0.2401
  -5.900  -0.6468   0.00712   0.00255  -0.0029  0.9885  0.0278  -2.9804   0.0000   0.2399
  -5.800  -0.6354   0.00704   0.00248  -0.0030  0.9864  0.0293  -2.8973   0.0000   0.2398
  -5.700  -0.6236   0.00698   0.00242  -0.0031  0.9845  0.0306  -2.8134   0.0000   0.2396
  -5.600  -0.6118   0.00691   0.00236  -0.0033  0.9827  0.0319  -2.7305   0.0000   0.2393
  -5.500  -0.6011   0.00684   0.00230  -0.0032  0.9797  0.0338  -2.6523   0.0000   0.2395
  -5.400  -0.5901   0.00678   0.00225  -0.0031  0.9768  0.0352  -2.5762   0.0000   0.2396
  -5.300  -0.5793   0.00671   0.00219  -0.0030  0.9739  0.0370  -2.5033   0.0000   0.2397
  -5.200  -0.5687   0.00665   0.00213  -0.0029  0.9703  0.0390  -2.4320   0.0000   0.2399
  -5.100  -0.5581   0.00660   0.00209  -0.0027  0.9666  0.0405  -2.3613   0.0000   0.2402
  -5.000  -0.5476   0.00653   0.00203  -0.0026  0.9627  0.0433  -2.2914   0.0000   0.2405
  -4.900  -0.5371   0.00647   0.00198  -0.0024  0.9584  0.0456  -2.2224   0.0000   0.2408
  -4.800  -0.5265   0.00641   0.00192  -0.0022  0.9542  0.0483  -2.1539   0.0000   0.2410
  -4.700  -0.5160   0.00635   0.00187  -0.0021  0.9493  0.0511  -2.0880   0.0000   0.2413
  -4.600  -0.5053   0.00630   0.00182  -0.0019  0.9445  0.0537  -2.0242   0.0000   0.2416
  -4.500  -0.4948   0.00624   0.00176  -0.0018  0.9391  0.0575  -1.9615   0.0000   0.2419
  -4.400  -0.4840   0.00619   0.00172  -0.0016  0.9338  0.0609  -1.8987   0.0000   0.2421
  -4.200  -0.4626   0.00608   0.00162  -0.0014  0.9219  0.0691  -1.7755   0.0000   0.2426
  -4.100  -0.4519   0.00603   0.00157  -0.0013  0.9157  0.0735  -1.7169   0.0000   0.2428
  -4.000  -0.4411   0.00597   0.00152  -0.0012  0.9090  0.0790  -1.6602   0.0000   0.2431
  -3.900  -0.4303   0.00592   0.00147  -0.0011  0.9020  0.0840  -1.6036   0.0000   0.2433
  -3.800  -0.4195   0.00587   0.00143  -0.0010  0.8950  0.0897  -1.5478   0.0000   0.2435
  -3.700  -0.4087   0.00582   0.00138  -0.0009  0.8875  0.0962  -1.4932   0.0000   0.2437
  -3.600  -0.3978   0.00577   0.00133  -0.0008  0.8796  0.1030  -1.4415   0.0000   0.2439
  -3.500  -0.3869   0.00572   0.00129  -0.0007  0.8715  0.1097  -1.3901   0.0000   0.2441
  -3.400  -0.3760   0.00568   0.00125  -0.0007  0.8632  0.1168  -1.3393   0.0000   0.2442
  -3.300  -0.3651   0.00563   0.00121  -0.0006  0.8547  0.1252  -1.2895   0.0000   0.2444
  -3.200  -0.3542   0.00558   0.00117  -0.0005  0.8459  0.1338  -1.2426   0.0000   0.2446
  -3.100  -0.3433   0.00553   0.00113  -0.0005  0.8367  0.1425  -1.1961   0.0000   0.2448
  -3.000  -0.3324   0.00548   0.00109  -0.0004  0.8274  0.1518  -1.1500   0.0000   0.2449
  -2.900  -0.3214   0.00544   0.00105  -0.0004  0.8178  0.1614  -1.1066   0.0000   0.2451
  -2.800  -0.3104   0.00540   0.00102  -0.0003  0.8081  0.1712  -1.0639   0.0000   0.2452
  -2.700  -0.2995   0.00536   0.00098  -0.0003  0.7982  0.1813  -1.0216   0.0000   0.2453
  -2.600  -0.2885   0.00531   0.00095  -0.0003  0.7881  0.1918  -0.9820   0.0000   0.2455
  -2.500  -0.2775   0.00527   0.00092  -0.0002  0.7778  0.2028  -0.9429   0.0000   0.2456
  -2.400  -0.2665   0.00523   0.00089  -0.0002  0.7674  0.2138  -0.9049   0.0000   0.2457
  -2.300  -0.2555   0.00519   0.00086  -0.0002  0.7569  0.2252  -0.8685   0.0000   0.2458
  -2.200  -0.2444   0.00516   0.00083  -0.0001  0.7461  0.2364  -0.8328   0.0000   0.2459
  -2.100  -0.2334   0.00512   0.00081  -0.0001  0.7354  0.2478  -0.7991   0.0000   0.2460
  -2.000  -0.2224   0.00509   0.00078  -0.0001  0.7244  0.2592  -0.7659   0.0000   0.2461
  -1.900  -0.2113   0.00506   0.00076  -0.0001  0.7135  0.2712  -0.7347   0.0000   0.2462
  -1.800  -0.2003   0.00503   0.00074  -0.0001  0.7025  0.2831  -0.7041   0.0000   0.2463
  -1.700  -0.1892   0.00500   0.00072  -0.0000  0.6915  0.2949  -0.6751   0.0000   0.2464
  -1.500  -0.1670   0.00495   0.00068  -0.0000  0.6694  0.3187  -0.6202   0.0000   0.2465
  -1.400  -0.1559   0.00492   0.00066  -0.0000  0.6582  0.3308  -0.5949   0.0000   0.2466
  -1.300  -0.1448   0.00490   0.00065  -0.0000  0.6469  0.3429  -0.5704   0.0000   0.2467
  -1.200  -0.1337   0.00489   0.00063  -0.0000  0.6356  0.3547  -0.5471   0.0000   0.2467
  -1.100  -0.1226   0.00486   0.00062   0.0000  0.6242  0.3668  -0.5252   0.0000   0.2468
  -1.000  -0.1115   0.00485   0.00061   0.0000  0.6129  0.3789  -0.5042   0.0000   0.2468
  -0.900  -0.1003   0.00483   0.00060   0.0000  0.6015  0.3911  -0.4841   0.0000   0.2469
  -0.800  -0.0892   0.00482   0.00059   0.0000  0.5903  0.4030  -0.4653   0.0000   0.2469
  -0.700  -0.0780   0.00481   0.00058   0.0000  0.5789  0.4148  -0.4474   0.0000   0.2469
  -0.600  -0.0669   0.00480   0.00057   0.0000  0.5674  0.4269  -0.4304   0.0000   0.2470
  -0.500  -0.0558   0.00479   0.00057   0.0000  0.5558  0.4389  -0.4142   0.0000   0.2470
  -0.400  -0.0446   0.00478   0.00056   0.0000  0.5442  0.4509  -0.3988   0.0000   0.2470
  -0.300  -0.0335   0.00478   0.00056   0.0000  0.5327  0.4625  -0.3843   0.0000   0.2470
  -0.200  -0.0223   0.00477   0.00056   0.0000  0.5212  0.4743  -0.3704   0.0000   0.2471
  -0.100  -0.0112   0.00477   0.00055   0.0000  0.5096  0.4860  -0.3571   0.0000   0.2471
   0.000  -0.0000   0.00477   0.00055   0.0000  0.4980  0.4980  -0.3443   0.0000   0.3296
   0.100   0.0112   0.00477   0.00055  -0.0000  0.4860  0.5096  -0.3571   0.0000   0.2471
   0.200   0.0223   0.00477   0.00056  -0.0000  0.4743  0.5212  -0.3704   0.0000   0.2471
   0.300   0.0335   0.00478   0.00056  -0.0000  0.4625  0.5327  -0.3843   0.0000   0.2470
   0.400   0.0446   0.00478   0.00056  -0.0000  0.4509  0.5442  -0.3988   0.0000   0.2470
   0.500   0.0558   0.00479   0.00057  -0.0000  0.4389  0.5558  -0.4142   0.0000   0.2470
   0.600   0.0669   0.00480   0.00057  -0.0000  0.4269  0.5674  -0.4304   0.0000   0.2470
   0.700   0.0780   0.00481   0.00058  -0.0000  0.4148  0.5789  -0.4474   0.0000   0.2469
   0.800   0.0892   0.00482   0.00059  -0.0000  0.4030  0.5903  -0.4653   0.0000   0.2469
   0.900   0.1003   0.00483   0.00060  -0.0000  0.3911  0.6015  -0.4841   0.0000   0.2469
   1.000   0.1115   0.00485   0.00061  -0.0000  0.3789  0.6129  -0.5042   0.0000   0.2468
   1.100   0.1226   0.00486   0.00062  -0.0000  0.3668  0.6242  -0.5252   0.0000   0.2468
   1.200   0.1337   0.00489   0.00063   0.0000  0.3547  0.6356  -0.5471   0.0000   0.2467
   1.300   0.1448   0.00490   0.00065   0.0000  0.3429  0.6469  -0.5704   0.0000   0.2467
   1.400   0.1559   0.00492   0.00066   0.0000  0.3308  0.6582  -0.5949   0.0000   0.2466
   1.500   0.1670   0.00495   0.00068   0.0000  0.3187  0.6694  -0.6202   0.0000   0.2466
   1.700   0.1892   0.00500   0.00072   0.0000  0.2949  0.6915  -0.6751   0.0000   0.2464
   1.800   0.2003   0.00503   0.00074   0.0001  0.2831  0.7025  -0.7041   0.0000   0.2463
   1.900   0.2113   0.00506   0.00076   0.0001  0.2712  0.7135  -0.7347   0.0000   0.2462
   2.000   0.2224   0.00509   0.00078   0.0001  0.2592  0.7245  -0.7659   0.0000   0.2461
   2.100   0.2334   0.00512   0.00081   0.0001  0.2478  0.7354  -0.7991   0.0000   0.2460
   2.200   0.2445   0.00516   0.00083   0.0001  0.2364  0.7461  -0.8328   0.0000   0.2459
   2.300   0.2555   0.00519   0.00086   0.0002  0.2252  0.7569  -0.8686   0.0000   0.2458
   2.400   0.2665   0.00523   0.00089   0.0002  0.2138  0.7674  -0.9049   0.0000   0.2457
   2.500   0.2775   0.00527   0.00092   0.0002  0.2028  0.7778  -0.9429   0.0000   0.2456
   2.600   0.2885   0.00531   0.00095   0.0003  0.1918  0.7880  -0.9820   0.0000   0.2455
   2.700   0.2995   0.00536   0.00098   0.0003  0.1813  0.7982  -1.0216   0.0000   0.2453
   2.800   0.3104   0.00540   0.00102   0.0003  0.1712  0.8081  -1.0639   0.0000   0.2452
   2.900   0.3214   0.00544   0.00105   0.0004  0.1613  0.8179  -1.1066   0.0000   0.2451
   3.000   0.3324   0.00548   0.00109   0.0004  0.1518  0.8274  -1.1500   0.0000   0.2449
   3.100   0.3433   0.00553   0.00113   0.0005  0.1425  0.8367  -1.1961   0.0000   0.2448
   3.200   0.3542   0.00558   0.00117   0.0005  0.1338  0.8459  -1.2426   0.0000   0.2446
   3.300   0.3651   0.00563   0.00121   0.0006  0.1252  0.8547  -1.2895   0.0000   0.2444
   3.400   0.3760   0.00568   0.00125   0.0007  0.1168  0.8632  -1.3393   0.0000   0.2442
   3.500   0.3869   0.00572   0.00129   0.0007  0.1097  0.8715  -1.3901   0.0000   0.2441
   3.600   0.3978   0.00577   0.00133   0.0008  0.1030  0.8795  -1.4415   0.0000   0.2439
   3.700   0.4087   0.00582   0.00138   0.0009  0.0962  0.8875  -1.4932   0.0000   0.2437
   3.800   0.4195   0.00587   0.00143   0.0010  0.0897  0.8949  -1.5478   0.0000   0.2435
   3.900   0.4303   0.00592   0.00147   0.0011  0.0840  0.9020  -1.6036   0.0000   0.2433
   4.000   0.4412   0.00597   0.00152   0.0012  0.0790  0.9089  -1.6602   0.0000   0.2431
   4.100   0.4519   0.00603   0.00157   0.0013  0.0735  0.9157  -1.7169   0.0000   0.2429
   4.200   0.4626   0.00608   0.00162   0.0014  0.0691  0.9219  -1.7755   0.0000   0.2426
   4.400   0.4841   0.00619   0.00172   0.0016  0.0609  0.9338  -1.8988   0.0000   0.2421
   4.500   0.4948   0.00624   0.00177   0.0018  0.0575  0.9391  -1.9615   0.0000   0.2419
   4.600   0.5053   0.00630   0.00182   0.0019  0.0537  0.9445  -2.0243   0.0000   0.2416
   4.700   0.5160   0.00635   0.00187   0.0020  0.0511  0.9493  -2.0881   0.0000   0.2414
   4.800   0.5265   0.00641   0.00192   0.0022  0.0483  0.9542  -2.1540   0.0000   0.2411
   4.900   0.5371   0.00647   0.00198   0.0024  0.0456  0.9584  -2.2225   0.0000   0.2408
   5.000   0.5476   0.00653   0.00203   0.0025  0.0433  0.9627  -2.2915   0.0000   0.2405
   5.100   0.5582   0.00660   0.00209   0.0027  0.0405  0.9666  -2.3613   0.0000   0.2402
   5.200   0.5687   0.00665   0.00213   0.0029  0.0390  0.9703  -2.4320   0.0000   0.2399
   5.300   0.5793   0.00671   0.00219   0.0030  0.0370  0.9739  -2.5034   0.0000   0.2397
   5.400   0.5901   0.00678   0.00225   0.0031  0.0352  0.9768  -2.5763   0.0000   0.2396
   5.500   0.6011   0.00684   0.00230   0.0032  0.0338  0.9797  -2.6524   0.0000   0.2395
   5.600   0.6118   0.00691   0.00236   0.0033  0.0319  0.9827  -2.7306   0.0000   0.2393
   5.700   0.6236   0.00698   0.00242   0.0031  0.0306  0.9845  -2.8135   0.0000   0.2396
   5.800   0.6354   0.00704   0.00248   0.0030  0.0293  0.9864  -2.8974   0.0000   0.2398
   5.900   0.6469   0.00712   0.00255   0.0029  0.0278  0.9885  -2.9805   0.0000   0.2399
   6.000   0.6584   0.00719   0.00261   0.0028  0.0268  0.9903  -3.0650   0.0000   0.2401
   6.100   0.6711   0.00726   0.00267   0.0025  0.0259  0.9912  -3.1547   0.0000   0.2406
   6.200   0.6836   0.00734   0.00274   0.0022  0.0247  0.9922  -3.2444   0.0000   0.2410
   6.300   0.6959   0.00742   0.00281   0.0019  0.0236  0.9931  -3.3344   0.0000   0.2414
   6.400   0.7084   0.00749   0.00287   0.0016  0.0229  0.9941  -3.4294   0.0000   0.2418
   6.500   0.7208   0.00757   0.00294   0.0013  0.0220  0.9949  -3.5267   0.0000   0.2422
   6.600   0.7332   0.00766   0.00302   0.0010  0.0210  0.9956  -3.6247   0.0000   0.2425
   6.700   0.7456   0.00773   0.00309   0.0007  0.0204  0.9962  -3.7239   0.0000   0.2428
   6.800   0.7585   0.00781   0.00316   0.0003  0.0199  0.9965  -3.8265   0.0000   0.2433
   6.900   0.7714   0.00789   0.00324  -0.0001  0.0192  0.9968  -3.9301   0.0000   0.2438
   7.000   0.7842   0.00799   0.00332  -0.0005  0.0185  0.9971  -4.0340   0.0000   0.2442
   7.100   0.7970   0.00807   0.00341  -0.0009  0.0178  0.9974  -4.1387   0.0000   0.2446
   7.200   0.8099   0.00815   0.00348  -0.0013  0.0174  0.9977  -4.2452   0.0000   0.2450
   7.300   0.8226   0.00823   0.00356  -0.0017  0.0170  0.9981  -4.3524   0.0000   0.2453
   7.400   0.8353   0.00832   0.00364  -0.0021  0.0164  0.9984  -4.4601   0.0000   0.2456
   7.500   0.8479   0.00843   0.00374  -0.0025  0.0158  0.9988  -4.5700   0.0000   0.2459
   7.600   0.8605   0.00851   0.00382  -0.0028  0.0154  0.9991  -4.6848   0.0000   0.2462
   7.700   0.8732   0.00859   0.00390  -0.0032  0.0151  0.9994  -4.8014   0.0000   0.2465
   7.800   0.8858   0.00868   0.00399  -0.0035  0.0148  0.9997  -4.9189   0.0000   0.2467
   7.900   0.8983   0.00877   0.00407  -0.0039  0.0144  0.9999  -5.0372   0.0000   0.2470
   8.000   0.9091   0.00887   0.00416  -0.0039  0.0141  1.0000  -5.1472   0.0000   0.2467
   8.100   0.9183   0.00896   0.00426  -0.0035  0.0137  1.0000  -5.2500   0.0000   0.2462
   8.200   0.9275   0.00907   0.00436  -0.0031  0.0133  1.0000  -5.3532   0.0000   0.2456
   8.300   0.9371   0.00914   0.00444  -0.0028  0.0132  1.0000  -5.4604   0.0000   0.2451
   8.400   0.9467   0.00922   0.00452  -0.0025  0.0130  1.0000  -5.5685   0.0000   0.2447
   8.500   0.9563   0.00930   0.00460  -0.0022  0.0128  1.0000  -5.6775   0.0000   0.2442
   8.600   0.9659   0.00939   0.00469  -0.0019  0.0125  1.0000  -5.7875   0.0000   0.2438
   8.700   0.9756   0.00949   0.00478  -0.0016  0.0122  1.0000  -5.8983   0.0000   0.2433
   8.800   0.9852   0.00959   0.00488  -0.0013  0.0120  1.0000  -6.0097   0.0000   0.2429
   8.900   0.9948   0.00970   0.00500  -0.0010  0.0117  1.0000  -6.1206   0.0000   0.2425
   9.000   1.0043   0.00982   0.00512  -0.0007  0.0114  1.0000  -6.2313   0.0000   0.2421
   9.100   1.0142   0.00991   0.00521  -0.0005  0.0113  1.0000  -6.3471   0.0000   0.2417
   9.200   1.0241   0.01000   0.00530  -0.0002  0.0112  1.0000  -6.4641   0.0000   0.2414
   9.300   1.0341   0.01009   0.00540  -0.0000  0.0110  1.0000  -6.5873   0.0000   0.2410
   9.400   1.0441   0.01019   0.00550   0.0002  0.0108  1.0000  -6.7114   0.0000   0.2407
   9.500   1.0541   0.01029   0.00560   0.0004  0.0107  1.0000  -6.8366   0.0000   0.2404
   9.600   1.0641   0.01040   0.00571   0.0006  0.0105  1.0000  -6.9628   0.0000   0.2401
   9.700   1.0741   0.01051   0.00582   0.0007  0.0103  1.0000  -7.0899   0.0000   0.2398
   9.800   1.0841   0.01063   0.00595   0.0009  0.0101  1.0000  -7.2173   0.0000   0.2395
   9.900   1.0940   0.01077   0.00609   0.0011  0.0099  1.0000  -7.3442   0.0000   0.2392
  10.000   1.1037   0.01093   0.00625   0.0013  0.0096  1.0000  -7.4692   0.0000   0.2389
  10.100   1.1139   0.01103   0.00636   0.0015  0.0096  1.0000  -7.6017   0.0000   0.2387
  10.200   1.1241   0.01113   0.00646   0.0016  0.0095  1.0000  -7.7351   0.0000   0.2384
  10.300   1.1343   0.01123   0.00657   0.0018  0.0094  1.0000  -7.8693   0.0000   0.2382
  10.400   1.1444   0.01134   0.00669   0.0019  0.0093  1.0000  -8.0043   0.0000   0.2379
  10.500   1.1546   0.01145   0.00681   0.0020  0.0092  1.0000  -8.1401   0.0000   0.2377
  10.600   1.1646   0.01157   0.00693   0.0022  0.0090  1.0000  -8.2765   0.0000   0.2374
  10.700   1.1747   0.01170   0.00706   0.0023  0.0089  1.0000  -8.4136   0.0000   0.2372
  10.800   1.1847   0.01183   0.00719   0.0025  0.0088  1.0000  -8.5512   0.0000   0.2369
  10.900   1.1946   0.01196   0.00732   0.0026  0.0087  1.0000  -8.6892   0.0000   0.2367
  11.000   1.2045   0.01210   0.00747   0.0028  0.0085  1.0000  -8.8271   0.0000   0.2364
  11.100   1.2143   0.01226   0.00764   0.0030  0.0084  1.0000  -8.9641   0.0000   0.2361
  11.200   1.2239   0.01245   0.00783   0.0032  0.0082  1.0000  -9.0991   0.0000   0.2358
  11.300   1.2335   0.01262   0.00802   0.0034  0.0081  1.0000  -9.2355   0.0000   0.2356
  11.400   1.2435   0.01274   0.00815   0.0035  0.0080  1.0000  -9.3789   0.0000   0.2353
  11.500   1.2535   0.01287   0.00828   0.0037  0.0080  1.0000  -9.5228   0.0000   0.2351
  11.600   1.2634   0.01300   0.00842   0.0038  0.0079  1.0000  -9.6672   0.0000   0.2348
  11.700   1.2732   0.01313   0.00856   0.0040  0.0078  1.0000  -9.8120   0.0000   0.2346
  11.800   1.2831   0.01327   0.00871   0.0041  0.0078  1.0000  -9.9573   0.0000   0.2343
  11.900   1.2928   0.01341   0.00886   0.0043  0.0077  1.0000  -10.1090   0.0000   0.2341
  12.000   1.3026   0.01356   0.00901   0.0045  0.0076  1.0000  -10.2615   0.0000   0.2338
  12.100   1.3123   0.01370   0.00917   0.0046  0.0075  1.0000  -10.4147   0.0000   0.2336
  12.200   1.3219   0.01386   0.00933   0.0048  0.0075  1.0000  -10.5684   0.0000   0.2333
  12.300   1.3315   0.01402   0.00949   0.0050  0.0074  1.0000  -10.7225   0.0000   0.2330
  12.400   1.3410   0.01418   0.00967   0.0052  0.0073  1.0000  -10.8771   0.0000   0.2327
  12.500   1.3504   0.01435   0.00984   0.0054  0.0072  1.0000  -11.0319   0.0000   0.2325
  12.600   1.3597   0.01453   0.01003   0.0056  0.0071  1.0000  -11.1866   0.0000   0.2322
  12.700   1.3689   0.01472   0.01023   0.0058  0.0070  1.0000  -11.3406   0.0000   0.2319
  12.800   1.3780   0.01493   0.01045   0.0061  0.0069  1.0000  -11.4931   0.0000   0.2316
  12.900   1.3868   0.01516   0.01070   0.0064  0.0068  1.0000  -11.6432   0.0000   0.2312
  13.000   1.3952   0.01543   0.01099   0.0067  0.0067  1.0000  -11.7891   0.0000   0.2309
  13.100   1.4044   0.01560   0.01118   0.0069  0.0066  1.0000  -11.9475   0.0000   0.2306
  13.200   1.4138   0.01576   0.01135   0.0071  0.0066  1.0000  -12.1088   0.0000   0.2303
  13.300   1.4230   0.01592   0.01152   0.0073  0.0066  1.0000  -12.2704   0.0000   0.2300
  13.400   1.4322   0.01609   0.01170   0.0075  0.0066  1.0000  -12.4322   0.0000   0.2297
  13.500   1.4413   0.01627   0.01188   0.0078  0.0065  1.0000  -12.5941   0.0000   0.2294
  13.600   1.4503   0.01644   0.01207   0.0080  0.0065  1.0000  -12.7560   0.0000   0.2291
  13.700   1.4592   0.01663   0.01227   0.0082  0.0064  1.0000  -12.9179   0.0000   0.2288
  13.800   1.4680   0.01682   0.01247   0.0085  0.0064  1.0000  -13.0798   0.0000   0.2285
  13.900   1.4768   0.01701   0.01268   0.0088  0.0063  1.0000  -13.2416   0.0000   0.2282
  14.000   1.4854   0.01721   0.01289   0.0090  0.0063  1.0000  -13.4035   0.0000   0.2278
  14.100   1.4940   0.01742   0.01311   0.0093  0.0062  1.0000  -13.5656   0.0000   0.2275
  14.200   1.5025   0.01763   0.01333   0.0096  0.0062  1.0000  -13.7277   0.0000   0.2272
  14.300   1.5109   0.01784   0.01356   0.0099  0.0061  1.0000  -13.8896   0.0000   0.2268
  14.400   1.5191   0.01806   0.01379   0.0102  0.0061  1.0000  -14.0514   0.0000   0.2265
  14.500   1.5273   0.01829   0.01403   0.0106  0.0060  1.0000  -14.2128   0.0000   0.2261
  14.600   1.5353   0.01852   0.01428   0.0109  0.0060  1.0000  -14.3739   0.0000   0.2257
  14.700   1.5432   0.01876   0.01453   0.0113  0.0059  1.0000  -14.5344   0.0000   0.2254
  14.800   1.5509   0.01901   0.01480   0.0116  0.0059  1.0000  -14.6937   0.0000   0.2250
  14.900   1.5584   0.01927   0.01508   0.0120  0.0058  1.0000  -14.8518   0.0000   0.2246
  15.000   1.5657   0.01955   0.01537   0.0124  0.0058  1.0000  -15.0078   0.0000   0.2242
  15.100   1.5727   0.01984   0.01568   0.0129  0.0057  1.0000  -15.1613   0.0000   0.2237
  15.200   1.5794   0.02015   0.01602   0.0134  0.0056  1.0000  -15.3114   0.0000   0.2233
  15.300   1.5857   0.02049   0.01638   0.0139  0.0056  1.0000  -15.4569   0.0000   0.2228
  15.400   1.5915   0.02087   0.01678   0.0145  0.0055  1.0000  -15.5969   0.0000   0.2223
  15.500   1.5967   0.02128   0.01723   0.0151  0.0054  1.0000  -15.7301   0.0000   0.2217
  15.600   1.6029   0.02159   0.01756   0.0156  0.0054  1.0000  -15.8794   0.0000   0.2212
  15.700   1.6095   0.02185   0.01784   0.0161  0.0054  1.0000  -16.0351   0.0000   0.2208
  15.800   1.6159   0.02213   0.01814   0.0166  0.0054  1.0000  -16.1887   0.0000   0.2203
  15.900   1.6217   0.02241   0.01843   0.0172  0.0054  1.0000  -16.3386   0.0000   0.2198
  16.000   1.6266   0.02269   0.01874   0.0180  0.0054  1.0000  -16.4796   0.0000   0.2192
  16.100   1.6309   0.02298   0.01905   0.0188  0.0053  1.0000  -16.6157   0.0000   0.2185
  16.200   1.6350   0.02329   0.01938   0.0197  0.0053  1.0000  -16.7490   0.0000   0.2178
  16.300   1.6388   0.02362   0.01973   0.0205  0.0053  1.0000  -16.8806   0.0000   0.2171
  16.400   1.6424   0.02396   0.02010   0.0213  0.0053  1.0000  -17.0106   0.0000   0.2165
  16.500   1.6459   0.02433   0.02048   0.0221  0.0053  1.0000  -17.1389   0.0000   0.2158
  16.600   1.6492   0.02471   0.02089   0.0229  0.0052  1.0000  -17.2669   0.0000   0.2152
  16.700   1.6524   0.02512   0.02132   0.0237  0.0052  1.0000  -17.3963   0.0000   0.2145
  16.800   1.6553   0.02555   0.02178   0.0244  0.0052  1.0000  -17.5238   0.0000   0.2139
  16.900   1.6581   0.02601   0.02226   0.0250  0.0052  1.0000  -17.6494   0.0000   0.2134
  17.000   1.6607   0.02649   0.02277   0.0257  0.0052  1.0000  -17.7728   0.0000   0.2128
  17.100   1.6631   0.02701   0.02331   0.0263  0.0051  1.0000  -17.8943   0.0000   0.2122
  17.200   1.6653   0.02755   0.02389   0.0269  0.0051  1.0000  -18.0131   0.0000   0.2117
  17.300   1.6673   0.02813   0.02450   0.0274  0.0051  1.0000  -18.1299   0.0000   0.2112
  17.400   1.6691   0.02875   0.02514   0.0278  0.0051  1.0000  -18.2440   0.0000   0.2107
  17.500   1.6707   0.02941   0.02583   0.0282  0.0051  1.0000  -18.3553   0.0000   0.2103
  17.600   1.6720   0.03011   0.02656   0.0286  0.0050  1.0000  -18.4640   0.0000   0.2099
  17.700   1.6732   0.03086   0.02734   0.0289  0.0050  1.0000  -18.5693   0.0000   0.2095
  17.800   1.6740   0.03167   0.02817   0.0291  0.0050  1.0000  -18.6714   0.0000   0.2091
  17.900   1.6747   0.03252   0.02906   0.0293  0.0050  1.0000  -18.7701   0.0000   0.2088
  18.000   1.6750   0.03344   0.03001   0.0293  0.0050  1.0000  -18.8642   0.0000   0.2085
  18.100   1.6751   0.03442   0.03102   0.0293  0.0050  1.0000  -18.9545   0.0000   0.2083
  18.200   1.6748   0.03547   0.03211   0.0293  0.0049  1.0000  -19.0402   0.0000   0.2081
  18.300   1.6741   0.03660   0.03327   0.0291  0.0049  1.0000  -19.1196   0.0000   0.2079
  18.400   1.6731   0.03782   0.03453   0.0288  0.0049  1.0000  -19.1933   0.0000   0.2078
  18.500   1.6716   0.03913   0.03588   0.0284  0.0049  1.0000  -19.2606   0.0000   0.2078
  18.600   1.6696   0.04054   0.03733   0.0280  0.0049  1.0000  -19.3202   0.0000   0.2078
  18.700   1.6671   0.04207   0.03889   0.0274  0.0049  1.0000  -19.3713   0.0000   0.2079
  18.800   1.6640   0.04372   0.04058   0.0267  0.0048  1.0000  -19.4137   0.0000   0.2080
  18.900   1.6603   0.04550   0.04241   0.0258  0.0048  1.0000  -19.4461   0.0000   0.2082
  19.000   1.6558   0.04743   0.04438   0.0249  0.0048  1.0000  -19.4659   0.0000   0.2085
  19.100   1.6504   0.04953   0.04652   0.0238  0.0048  1.0000  -19.4726   0.0000   0.2088
  19.200   1.6441   0.05181   0.04886   0.0226  0.0048  1.0000  -19.4642   0.0000   0.2092
  19.300   1.6366   0.05431   0.05141   0.0212  0.0048  1.0000  -19.4375   0.0000   0.2097
  19.400   1.6279   0.05704   0.05419   0.0197  0.0048  1.0000  -19.3901   0.0000   0.2103
  19.500   1.6176   0.06005   0.05726   0.0180  0.0048  1.0000  -19.3185   0.0000   0.2110
  19.600   1.6056   0.06337   0.06064   0.0161  0.0048  1.0000  -19.2194   0.0000   0.2118
  19.700   1.5913   0.06709   0.06442   0.0140  0.0048  1.0000  -19.0835   0.0000   0.2128
  19.800   1.5745   0.07128   0.06869   0.0116  0.0048  1.0000  -18.9054   0.0000   0.2139
  19.900   1.5542   0.07607   0.07355   0.0089  0.0048  1.0000  -18.6710   0.0000   0.2153
  20.000   1.5299   0.08163   0.07920   0.0058  0.0048  1.0000  -18.3674   0.0000   0.2170
  20.100   1.4991   0.08835   0.08603   0.0020  0.0049  1.0000  -17.9561   0.0000   0.2192
  20.200   1.4587   0.09692   0.09472  -0.0028  0.0049  1.0000  -17.3781   0.0000   0.2222
  20.300   1.4011   0.10878   0.10674  -0.0096  0.0050  1.0000  -16.4972   0.0000   0.2270
  20.400   1.3024   0.12908   0.12728  -0.0215  0.0052  1.0000  -14.8432   0.0000   0.2368
  20.500   1.2049   0.15097   0.14940  -0.0354  0.0053  1.0000  -13.0241   0.0000   0.2500
  20.600   1.1647   0.16183   0.16036  -0.0426  0.0053  1.0000  -12.2027   0.0000   0.2574
  20.700   1.1417   0.16899   0.16758  -0.0474  0.0053  1.0000  -11.7057   0.0000   0.2624
  20.800   1.1285   0.17406   0.17268  -0.0509  0.0054  1.0000  -11.4037   0.0000   0.2658
  20.900   1.1163   0.17893   0.17760  -0.0542  0.0053  1.0000  -11.1107   0.0000   0.2693
  21.000   1.1108   0.18218   0.18088  -0.0565  0.0053  1.0000  -10.9725   0.0000   0.2714
  21.100   1.1020   0.18636   0.18508  -0.0593  0.0053  1.0000  -10.7387   0.0000   0.2744
  21.200   1.0985   0.18917   0.18791  -0.0613  0.0053  1.0000  -10.6357   0.0000   0.2763
  21.300   1.0923   0.19272   0.19149  -0.0638  0.0053  1.0000  -10.4554   0.0000   0.2788
  21.400   1.0889   0.19555   0.19434  -0.0658  0.0053  1.0000  -10.3442   0.0000   0.2807
  21.500   1.0868   0.19805   0.19685  -0.0675  0.0053  1.0000  -10.2643   0.0000   0.2823
  21.600   1.0823   0.20127   0.20010  -0.0698  0.0053  1.0000  -10.1079   0.0000   0.2846
  21.700   1.0800   0.20391   0.20275  -0.0717  0.0052  1.0000  -10.0102   0.0000   0.2863
  21.800   1.0789   0.20620   0.20506  -0.0734  0.0052  1.0000  -9.9449   0.0000   0.2878
  21.900   1.0769   0.20879   0.20767  -0.0752  0.0052  1.0000  -9.8474   0.0000   0.2895
  22.000   1.0737   0.21176   0.21066  -0.0773  0.0051  1.0000  -9.7059   0.0000   0.2916
  22.100   1.0730   0.21400   0.21291  -0.0790  0.0051  1.0000  -9.6412   0.0000   0.2930
  22.200   1.0722   0.21626   0.21518  -0.0806  0.0051  1.0000  -9.5712   0.0000   0.2945
  22.300   1.0690   0.21934   0.21829  -0.0828  0.0050  1.0000  -9.4087   0.0000   0.2967
  22.400   1.0684   0.22160   0.22056  -0.0845  0.0050  1.0000  -9.3344   0.0000   0.2982
  22.500   1.0680   0.22378   0.22275  -0.0861  0.0050  1.0000  -9.2658   0.0000   0.2996
  22.600   1.0655   0.22673   0.22572  -0.0882  0.0049  1.0000  -9.1098   0.0000   0.3017
  22.700   1.0647   0.22909   0.22809  -0.0899  0.0049  1.0000  -9.0172   0.0000   0.3032
  22.800   1.0647   0.23121   0.23022  -0.0914  0.0048  1.0000  -8.9511   0.0000   0.3046
  22.900   1.0639   0.23370   0.23272  -0.0932  0.0048  1.0000  -8.8433   0.0000   0.3062
  23.000   1.0623   0.23643   0.23546  -0.0952  0.0047  1.0000  -8.7006   0.0000   0.3081
  23.100   1.0627   0.23851   0.23755  -0.0967  0.0046  1.0000  -8.6335   0.0000   0.3094
  23.200   1.0631   0.24054   0.23958  -0.0982  0.0046  1.0000  -8.5699   0.0000   0.3107
  23.300   1.0619   0.24327   0.24233  -0.1001  0.0045  1.0000  -8.4199   0.0000   0.3125
  23.400   1.0623   0.24541   0.24447  -0.1017  0.0044  1.0000  -8.3362   0.0000   0.3139


