xflr5 v6.47

 Calculated polar for: NACA 0010

 1 1 Reynolds number fixed          Mach number fixed         

 xtrf =   1.000 (top)        1.000 (bottom)
 Mach =   0.000     Re =     5.000 e 6     Ncrit =   9.000

  alpha     CL        CD       CDp       Cm    Top Xtr Bot Xtr   Cpmin    Chinge    XCp    
 ------- -------- --------- --------- -------- ------- ------- -------- --------- ---------
 -23.000  -1.0771   0.23028   0.22932   0.0913  1.0000  0.0044  -9.3840   0.0000   0.3027
 -22.900  -1.0765   0.22844   0.22747   0.0899  1.0000  0.0045  -9.4214   0.0000   0.3016
 -22.800  -1.0765   0.22635   0.22537   0.0883  1.0000  0.0045  -9.4822   0.0000   0.3003
 -22.700  -1.0788   0.22357   0.22257   0.0863  1.0000  0.0046  -9.6233   0.0000   0.2983
 -22.600  -1.0793   0.22140   0.22040   0.0847  1.0000  0.0047  -9.6909   0.0000   0.2969
 -22.500  -1.0798   0.21925   0.21825   0.0831  1.0000  0.0047  -9.7538   0.0000   0.2955
 -22.400  -1.0815   0.21670   0.21568   0.0812  1.0000  0.0047  -9.8585   0.0000   0.2938
 -22.300  -1.0848   0.21370   0.21267   0.0790  1.0000  0.0048  -10.0094   0.0000   0.2916
 -22.200  -1.0858   0.21141   0.21036   0.0773  1.0000  0.0048  -10.0807   0.0000   0.2901
 -22.100  -1.0875   0.20891   0.20785   0.0755  1.0000  0.0048  -10.1714   0.0000   0.2884
 -22.000  -1.0930   0.20533   0.20424   0.0729  1.0000  0.0049  -10.3743   0.0000   0.2858
 -21.900  -1.0950   0.20285   0.20175   0.0711  1.0000  0.0049  -10.4612   0.0000   0.2841
 -21.800  -1.1025   0.19877   0.19764   0.0682  1.0000  0.0049  -10.7049   0.0000   0.2811
 -21.700  -1.1063   0.19588   0.19474   0.0661  1.0000  0.0049  -10.8289   0.0000   0.2791
 -21.600  -1.1162   0.19129   0.19011   0.0628  1.0000  0.0050  -11.1162   0.0000   0.2756
 -21.500  -1.1226   0.18773   0.18653   0.0603  1.0000  0.0050  -11.2952   0.0000   0.2732
 -21.400  -1.1379   0.18198   0.18073   0.0563  1.0000  0.0050  -11.6910   0.0000   0.2688
 -21.300  -1.1580   0.17511   0.17380   0.0514  1.0000  0.0050  -12.1837   0.0000   0.2637
 -21.200  -1.1993   0.16358   0.16216   0.0434  1.0000  0.0049  -13.1165   0.0000   0.2553
 -21.100  -1.2921   0.14175   0.14009   0.0288  1.0000  0.0048  -15.0002   0.0000   0.2409
 -21.000  -1.3586   0.12695   0.12511   0.0194  1.0000  0.0046  -16.1954   0.0000   0.2328
 -20.900  -1.4020   0.11723   0.11528   0.0136  1.0000  0.0045  -16.9067   0.0000   0.2284
 -20.800  -1.4352   0.10967   0.10762   0.0092  1.0000  0.0045  -17.4133   0.0000   0.2253
 -20.700  -1.4644   0.10294   0.10081   0.0054  1.0000  0.0044  -17.8352   0.0000   0.2228
 -20.600  -1.4894   0.09708   0.09488   0.0022  1.0000  0.0044  -18.1753   0.0000   0.2207
 -20.500  -1.5121   0.09170   0.08943  -0.0008  1.0000  0.0043  -18.4697   0.0000   0.2190
 -20.400  -1.5408   0.08534   0.08298  -0.0043  1.0000  0.0043  -18.8539   0.0000   0.2169
 -20.300  -1.5722   0.07860   0.07614  -0.0082  1.0000  0.0043  -19.2741   0.0000   0.2148
 -20.200  -1.5963   0.07321   0.07066  -0.0112  1.0000  0.0043  -19.5699   0.0000   0.2133
 -20.100  -1.6154   0.06869   0.06607  -0.0138  1.0000  0.0043  -19.7843   0.0000   0.2120
 -20.000  -1.6311   0.06477   0.06208  -0.0160  1.0000  0.0043  -19.9433   0.0000   0.2111
 -19.900  -1.6443   0.06132   0.05857  -0.0179  1.0000  0.0043  -20.0595   0.0000   0.2102
 -19.800  -1.6551   0.05824   0.05544  -0.0196  1.0000  0.0043  -20.1389   0.0000   0.2096
 -19.700  -1.6643   0.05547   0.05261  -0.0211  1.0000  0.0043  -20.1920   0.0000   0.2090
 -19.600  -1.6721   0.05294   0.05004  -0.0225  1.0000  0.0043  -20.2230   0.0000   0.2085
 -19.500  -1.6785   0.05065   0.04770  -0.0237  1.0000  0.0043  -20.2328   0.0000   0.2081
 -19.400  -1.6839   0.04854   0.04555  -0.0248  1.0000  0.0043  -20.2259   0.0000   0.2078
 -19.300  -1.6885   0.04661   0.04357  -0.0257  1.0000  0.0043  -20.2055   0.0000   0.2076
 -19.200  -1.6923   0.04482   0.04174  -0.0266  1.0000  0.0043  -20.1725   0.0000   0.2074
 -19.100  -1.6953   0.04317   0.04005  -0.0273  1.0000  0.0043  -20.1276   0.0000   0.2072
 -19.000  -1.6977   0.04164   0.03848  -0.0279  1.0000  0.0043  -20.0733   0.0000   0.2072
 -18.900  -1.6996   0.04022   0.03702  -0.0284  1.0000  0.0043  -20.0111   0.0000   0.2071
 -18.800  -1.7033   0.03860   0.03537  -0.0289  1.0000  0.0043  -19.9753   0.0000   0.2071
 -18.700  -1.7067   0.03710   0.03382  -0.0293  1.0000  0.0044  -19.9326   0.0000   0.2072
 -18.600  -1.7095   0.03572   0.03239  -0.0296  1.0000  0.0044  -19.8809   0.0000   0.2073
 -18.500  -1.7117   0.03446   0.03109  -0.0297  1.0000  0.0044  -19.8206   0.0000   0.2075
 -18.400  -1.7133   0.03330   0.02989  -0.0297  1.0000  0.0044  -19.7515   0.0000   0.2078
 -18.300  -1.7145   0.03224   0.02880  -0.0296  1.0000  0.0045  -19.6753   0.0000   0.2081
 -18.200  -1.7152   0.03126   0.02779  -0.0295  1.0000  0.0045  -19.5924   0.0000   0.2084
 -18.100  -1.7154   0.03037   0.02686  -0.0292  1.0000  0.0045  -19.5028   0.0000   0.2088
 -18.000  -1.7153   0.02954   0.02600  -0.0289  1.0000  0.0046  -19.4077   0.0000   0.2092
 -17.900  -1.7148   0.02878   0.02521  -0.0284  1.0000  0.0046  -19.3071   0.0000   0.2097
 -17.800  -1.7139   0.02808   0.02448  -0.0280  1.0000  0.0046  -19.2015   0.0000   0.2102
 -17.700  -1.7127   0.02743   0.02380  -0.0275  1.0000  0.0047  -19.0918   0.0000   0.2107
 -17.600  -1.7111   0.02683   0.02317  -0.0269  1.0000  0.0047  -18.9777   0.0000   0.2112
 -17.500  -1.7093   0.02627   0.02259  -0.0263  1.0000  0.0047  -18.8601   0.0000   0.2118
 -17.400  -1.7073   0.02574   0.02204  -0.0256  1.0000  0.0047  -18.7390   0.0000   0.2124
 -17.300  -1.7050   0.02525   0.02152  -0.0249  1.0000  0.0048  -18.6154   0.0000   0.2130
 -17.200  -1.7024   0.02479   0.02104  -0.0242  1.0000  0.0048  -18.4890   0.0000   0.2136
 -17.100  -1.6997   0.02436   0.02058  -0.0234  1.0000  0.0048  -18.3603   0.0000   0.2142
 -17.000  -1.6968   0.02395   0.02016  -0.0226  1.0000  0.0048  -18.2294   0.0000   0.2149
 -16.900  -1.6937   0.02357   0.01975  -0.0218  1.0000  0.0049  -18.0964   0.0000   0.2155
 -16.800  -1.6904   0.02321   0.01937  -0.0210  1.0000  0.0049  -17.9617   0.0000   0.2162
 -16.700  -1.6869   0.02286   0.01901  -0.0201  1.0000  0.0049  -17.8252   0.0000   0.2169
 -16.600  -1.6833   0.02254   0.01866  -0.0192  1.0000  0.0050  -17.6869   0.0000   0.2176
 -16.500  -1.6794   0.02223   0.01834  -0.0183  1.0000  0.0050  -17.5497   0.0000   0.2183
 -16.400  -1.6752   0.02194   0.01803  -0.0175  1.0000  0.0050  -17.4111   0.0000   0.2190
 -16.300  -1.6703   0.02166   0.01773  -0.0167  1.0000  0.0050  -17.2657   0.0000   0.2196
 -16.200  -1.6644   0.02138   0.01743  -0.0161  1.0000  0.0051  -17.1117   0.0000   0.2201
 -16.100  -1.6582   0.02110   0.01713  -0.0156  1.0000  0.0051  -16.9545   0.0000   0.2206
 -16.000  -1.6516   0.02083   0.01685  -0.0151  1.0000  0.0051  -16.7956   0.0000   0.2210
 -15.900  -1.6449   0.02057   0.01657  -0.0146  1.0000  0.0051  -16.6354   0.0000   0.2215
 -15.800  -1.6380   0.02031   0.01629  -0.0141  1.0000  0.0052  -16.4742   0.0000   0.2219
 -15.700  -1.6310   0.02006   0.01602  -0.0137  1.0000  0.0052  -16.3119   0.0000   0.2223
 -15.600  -1.6238   0.01981   0.01576  -0.0133  1.0000  0.0052  -16.1487   0.0000   0.2228
 -15.500  -1.6164   0.01957   0.01551  -0.0129  1.0000  0.0053  -15.9847   0.0000   0.2232
 -15.400  -1.6088   0.01934   0.01526  -0.0125  1.0000  0.0053  -15.8200   0.0000   0.2236
 -15.300  -1.6012   0.01911   0.01502  -0.0121  1.0000  0.0053  -15.6546   0.0000   0.2240
 -15.200  -1.5934   0.01888   0.01478  -0.0117  1.0000  0.0053  -15.4887   0.0000   0.2243
 -15.100  -1.5855   0.01867   0.01455  -0.0114  1.0000  0.0053  -15.3223   0.0000   0.2247
 -15.000  -1.5774   0.01845   0.01432  -0.0111  1.0000  0.0054  -15.1555   0.0000   0.2251
 -14.900  -1.5693   0.01825   0.01410  -0.0107  1.0000  0.0054  -14.9883   0.0000   0.2254
 -14.800  -1.5610   0.01804   0.01388  -0.0104  1.0000  0.0054  -14.8209   0.0000   0.2258
 -14.700  -1.5526   0.01784   0.01367  -0.0101  1.0000  0.0054  -14.6533   0.0000   0.2261
 -14.600  -1.5443   0.01764   0.01345  -0.0098  1.0000  0.0054  -14.4873   0.0000   0.2265
 -14.500  -1.5367   0.01734   0.01313  -0.0094  1.0000  0.0055  -14.3348   0.0000   0.2269
 -14.400  -1.5289   0.01707   0.01284  -0.0090  1.0000  0.0056  -14.1792   0.0000   0.2273
 -14.300  -1.5208   0.01682   0.01257  -0.0087  1.0000  0.0057  -14.0211   0.0000   0.2277
 -14.200  -1.5125   0.01658   0.01232  -0.0084  1.0000  0.0058  -13.8609   0.0000   0.2280
 -14.100  -1.5040   0.01636   0.01209  -0.0081  1.0000  0.0058  -13.6989   0.0000   0.2284
 -14.000  -1.4954   0.01615   0.01187  -0.0078  1.0000  0.0059  -13.5359   0.0000   0.2287
 -13.900  -1.4866   0.01595   0.01166  -0.0075  1.0000  0.0060  -13.3723   0.0000   0.2290
 -13.800  -1.4778   0.01576   0.01146  -0.0072  1.0000  0.0060  -13.2084   0.0000   0.2293
 -13.700  -1.4688   0.01557   0.01126  -0.0070  1.0000  0.0061  -13.0444   0.0000   0.2297
 -13.600  -1.4598   0.01539   0.01107  -0.0068  1.0000  0.0061  -12.8804   0.0000   0.2300
 -13.500  -1.4506   0.01521   0.01089  -0.0065  1.0000  0.0062  -12.7167   0.0000   0.2303
 -13.400  -1.4414   0.01504   0.01071  -0.0063  1.0000  0.0062  -12.5532   0.0000   0.2306
 -13.300  -1.4322   0.01488   0.01053  -0.0061  1.0000  0.0063  -12.3897   0.0000   0.2308
 -13.200  -1.4228   0.01472   0.01036  -0.0059  1.0000  0.0064  -12.2264   0.0000   0.2311
 -13.100  -1.4134   0.01456   0.01020  -0.0057  1.0000  0.0064  -12.0636   0.0000   0.2314
 -13.000  -1.4039   0.01441   0.01004  -0.0055  1.0000  0.0065  -11.9012   0.0000   0.2317
 -12.900  -1.3944   0.01426   0.00988  -0.0053  1.0000  0.0065  -11.7393   0.0000   0.2320
 -12.800  -1.3848   0.01411   0.00972  -0.0052  1.0000  0.0066  -11.5779   0.0000   0.2322
 -12.700  -1.3752   0.01397   0.00957  -0.0050  1.0000  0.0066  -11.4171   0.0000   0.2325
 -12.600  -1.3655   0.01383   0.00942  -0.0048  1.0000  0.0066  -11.2568   0.0000   0.2327
 -12.500  -1.3558   0.01369   0.00928  -0.0047  1.0000  0.0066  -11.0972   0.0000   0.2330
 -12.400  -1.3460   0.01356   0.00914  -0.0045  1.0000  0.0067  -10.9382   0.0000   0.2333
 -12.300  -1.3368   0.01334   0.00891  -0.0043  1.0000  0.0068  -10.7894   0.0000   0.2336
 -12.200  -1.3275   0.01315   0.00871  -0.0040  1.0000  0.0069  -10.6387   0.0000   0.2339
 -12.100  -1.3179   0.01298   0.00853  -0.0038  1.0000  0.0071  -10.4867   0.0000   0.2342
 -12.000  -1.3083   0.01282   0.00837  -0.0037  1.0000  0.0072  -10.3338   0.0000   0.2344
 -11.900  -1.2985   0.01267   0.00821  -0.0035  1.0000  0.0073  -10.1808   0.0000   0.2347
 -11.800  -1.2887   0.01253   0.00806  -0.0033  1.0000  0.0074  -10.0298   0.0000   0.2350
 -11.700  -1.2789   0.01239   0.00792  -0.0032  1.0000  0.0075  -9.8832   0.0000   0.2352
 -11.600  -1.2690   0.01225   0.00778  -0.0030  1.0000  0.0075  -9.7372   0.0000   0.2355
 -11.500  -1.2590   0.01212   0.00764  -0.0029  1.0000  0.0076  -9.5918   0.0000   0.2357
 -11.400  -1.2490   0.01200   0.00751  -0.0027  1.0000  0.0077  -9.4470   0.0000   0.2360
 -11.300  -1.2390   0.01188   0.00739  -0.0026  1.0000  0.0078  -9.3028   0.0000   0.2362
 -11.200  -1.2289   0.01176   0.00726  -0.0025  1.0000  0.0079  -9.1593   0.0000   0.2364
 -11.100  -1.2188   0.01164   0.00714  -0.0023  1.0000  0.0079  -9.0164   0.0000   0.2367
 -11.000  -1.2087   0.01153   0.00702  -0.0022  1.0000  0.0080  -8.8742   0.0000   0.2369
 -10.900  -1.1985   0.01142   0.00691  -0.0021  1.0000  0.0080  -8.7326   0.0000   0.2371
 -10.800  -1.1883   0.01132   0.00680  -0.0019  1.0000  0.0081  -8.5917   0.0000   0.2374
 -10.700  -1.1785   0.01116   0.00664  -0.0018  1.0000  0.0083  -8.4577   0.0000   0.2377
 -10.600  -1.1685   0.01101   0.00649  -0.0016  1.0000  0.0084  -8.3230   0.0000   0.2379
 -10.500  -1.1585   0.01088   0.00635  -0.0014  1.0000  0.0086  -8.1875   0.0000   0.2382
 -10.400  -1.1485   0.01076   0.00623  -0.0013  1.0000  0.0088  -8.0518   0.0000   0.2385
 -10.300  -1.1383   0.01065   0.00611  -0.0011  1.0000  0.0089  -7.9165   0.0000   0.2387
 -10.200  -1.1282   0.01054   0.00600  -0.0010  1.0000  0.0091  -7.7819   0.0000   0.2390
 -10.100  -1.1180   0.01043   0.00590  -0.0008  1.0000  0.0092  -7.6482   0.0000   0.2392
 -10.000  -1.1079   0.01033   0.00579  -0.0007  1.0000  0.0093  -7.5153   0.0000   0.2395
  -9.900  -1.0977   0.01023   0.00569  -0.0005  1.0000  0.0094  -7.3833   0.0000   0.2397
  -9.800  -1.0875   0.01014   0.00560  -0.0004  1.0000  0.0095  -7.2524   0.0000   0.2400
  -9.700  -1.0773   0.01005   0.00550  -0.0002  1.0000  0.0096  -7.1224   0.0000   0.2403
  -9.600  -1.0672   0.00995   0.00541  -0.0001  1.0000  0.0097  -6.9943   0.0000   0.2406
  -9.500  -1.0575   0.00982   0.00527   0.0002  1.0000  0.0100  -6.8711   0.0000   0.2409
  -9.400  -1.0476   0.00971   0.00516   0.0004  1.0000  0.0102  -6.7472   0.0000   0.2413
  -9.300  -1.0378   0.00961   0.00506   0.0007  1.0000  0.0104  -6.6238   0.0000   0.2416
  -9.200  -1.0280   0.00951   0.00496   0.0009  1.0000  0.0106  -6.5012   0.0000   0.2420
  -9.100  -1.0183   0.00941   0.00487   0.0012  1.0000  0.0108  -6.3845   0.0000   0.2424
  -9.000  -1.0085   0.00933   0.00478   0.0014  1.0000  0.0110  -6.2691   0.0000   0.2428
  -8.900  -0.9987   0.00924   0.00469   0.0017  1.0000  0.0111  -6.1544   0.0000   0.2432
  -8.800  -0.9889   0.00916   0.00461   0.0020  1.0000  0.0112  -6.0407   0.0000   0.2436
  -8.700  -0.9792   0.00908   0.00453   0.0022  1.0000  0.0113  -5.9280   0.0000   0.2440
  -8.600  -0.9697   0.00899   0.00444   0.0026  1.0000  0.0116  -5.8182   0.0000   0.2445
  -8.500  -0.9604   0.00889   0.00434   0.0029  1.0000  0.0119  -5.7104   0.0000   0.2450
  -8.400  -0.9510   0.00880   0.00425   0.0033  1.0000  0.0122  -5.6026   0.0000   0.2455
  -8.300  -0.9404   0.00871   0.00416   0.0033  0.9999  0.0125  -5.4888   0.0000   0.2457
  -8.200  -0.9280   0.00862   0.00408   0.0030  0.9997  0.0128  -5.3666   0.0000   0.2455
  -8.100  -0.9155   0.00853   0.00400   0.0027  0.9994  0.0131  -5.2454   0.0000   0.2453
  -8.000  -0.9030   0.00846   0.00392   0.0024  0.9992  0.0133  -5.1250   0.0000   0.2451
  -7.900  -0.8905   0.00837   0.00383   0.0020  0.9989  0.0135  -5.0066   0.0000   0.2449
  -7.800  -0.8781   0.00827   0.00373   0.0017  0.9985  0.0141  -4.8899   0.0000   0.2447
  -7.700  -0.8656   0.00817   0.00365   0.0014  0.9982  0.0145  -4.7733   0.0000   0.2444
  -7.600  -0.8531   0.00809   0.00357   0.0010  0.9979  0.0149  -4.6573   0.0000   0.2441
  -7.500  -0.8404   0.00801   0.00350   0.0007  0.9976  0.0152  -4.5421   0.0000   0.2438
  -7.400  -0.8277   0.00794   0.00343   0.0003  0.9973  0.0154  -4.4325   0.0000   0.2435
  -7.300  -0.8150   0.00785   0.00334  -0.0001  0.9970  0.0159  -4.3254   0.0000   0.2431
  -7.200  -0.8023   0.00776   0.00326  -0.0005  0.9967  0.0166  -4.2189   0.0000   0.2428
  -7.100  -0.7896   0.00768   0.00319  -0.0009  0.9965  0.0172  -4.1128   0.0000   0.2423
  -7.000  -0.7770   0.00760   0.00312  -0.0012  0.9961  0.0176  -4.0085   0.0000   0.2420
  -6.900  -0.7650   0.00754   0.00305  -0.0014  0.9952  0.0179  -3.9074   0.0000   0.2418
  -6.800  -0.7530   0.00745   0.00298  -0.0016  0.9941  0.0188  -3.8085   0.0000   0.2416
  -6.700  -0.7409   0.00737   0.00290  -0.0018  0.9930  0.0195  -3.7097   0.0000   0.2413
  -6.600  -0.7287   0.00730   0.00284  -0.0021  0.9920  0.0201  -3.6110   0.0000   0.2410
  -6.500  -0.7162   0.00723   0.00278  -0.0024  0.9910  0.0206  -3.5123   0.0000   0.2406
  -6.400  -0.7039   0.00716   0.00271  -0.0027  0.9899  0.0215  -3.4155   0.0000   0.2403
  -6.300  -0.6929   0.00708   0.00265  -0.0026  0.9877  0.0224  -3.3270   0.0000   0.2403
  -6.200  -0.6814   0.00702   0.00259  -0.0027  0.9856  0.0232  -3.2398   0.0000   0.2403
  -6.100  -0.6698   0.00696   0.00253  -0.0028  0.9836  0.0239  -3.1530   0.0000   0.2401
  -6.000  -0.6589   0.00689   0.00247  -0.0027  0.9812  0.0252  -3.0699   0.0000   0.2402
  -5.900  -0.6481   0.00682   0.00241  -0.0026  0.9781  0.0262  -2.9880   0.0000   0.2404
  -5.800  -0.6374   0.00677   0.00236  -0.0025  0.9752  0.0270  -2.9069   0.0000   0.2406
  -5.700  -0.6267   0.00671   0.00230  -0.0024  0.9719  0.0282  -2.8271   0.0000   0.2408
  -5.600  -0.6163   0.00664   0.00224  -0.0022  0.9681  0.0296  -2.7488   0.0000   0.2411
  -5.500  -0.6057   0.00659   0.00219  -0.0021  0.9645  0.0308  -2.6707   0.0000   0.2414
  -5.400  -0.5951   0.00654   0.00214  -0.0019  0.9602  0.0322  -2.5947   0.0000   0.2416
  -5.300  -0.5847   0.00648   0.00208  -0.0017  0.9560  0.0340  -2.5228   0.0000   0.2420
  -5.200  -0.5739   0.00643   0.00203  -0.0016  0.9514  0.0353  -2.4504   0.0000   0.2422
  -5.100  -0.5634   0.00638   0.00198  -0.0015  0.9466  0.0372  -2.3796   0.0000   0.2425
  -5.000  -0.5526   0.00632   0.00192  -0.0013  0.9415  0.0392  -2.3088   0.0000   0.2427
  -4.900  -0.5419   0.00628   0.00188  -0.0012  0.9363  0.0406  -2.2387   0.0000   0.2430
  -4.800  -0.5312   0.00622   0.00182  -0.0011  0.9305  0.0436  -2.1695   0.0000   0.2432
  -4.700  -0.5204   0.00618   0.00177  -0.0010  0.9248  0.0458  -2.1017   0.0000   0.2434
  -4.600  -0.5096   0.00613   0.00172  -0.0009  0.9185  0.0487  -2.0375   0.0000   0.2436
  -4.500  -0.4987   0.00608   0.00168  -0.0008  0.9121  0.0514  -1.9734   0.0000   0.2438
  -4.400  -0.4878   0.00604   0.00163  -0.0007  0.9055  0.0543  -1.9101   0.0000   0.2440
  -4.300  -0.4770   0.00599   0.00158  -0.0007  0.8984  0.0579  -1.8477   0.0000   0.2442
  -4.200  -0.4660   0.00595   0.00154  -0.0006  0.8910  0.0616  -1.7856   0.0000   0.2444
  -4.100  -0.4551   0.00591   0.00149  -0.0005  0.8835  0.0654  -1.7257   0.0000   0.2445
  -4.000  -0.4441   0.00586   0.00145  -0.0005  0.8758  0.0696  -1.6682   0.0000   0.2447
  -3.900  -0.4332   0.00583   0.00140  -0.0004  0.8676  0.0738  -1.6113   0.0000   0.2449
  -3.800  -0.4222   0.00578   0.00136  -0.0003  0.8591  0.0795  -1.5552   0.0000   0.2450
  -3.700  -0.4112   0.00574   0.00132  -0.0003  0.8504  0.0844  -1.4993   0.0000   0.2452
  -3.600  -0.4002   0.00570   0.00128  -0.0003  0.8415  0.0898  -1.4472   0.0000   0.2453
  -3.500  -0.3892   0.00566   0.00124  -0.0002  0.8324  0.0966  -1.3957   0.0000   0.2455
  -3.400  -0.3782   0.00562   0.00120  -0.0002  0.8232  0.1031  -1.3446   0.0000   0.2456
  -3.300  -0.3671   0.00558   0.00116  -0.0001  0.8137  0.1093  -1.2939   0.0000   0.2457
  -3.200  -0.3561   0.00554   0.00112  -0.0001  0.8040  0.1166  -1.2466   0.0000   0.2458
  -3.100  -0.3451   0.00550   0.00109  -0.0001  0.7941  0.1248  -1.1999   0.0000   0.2460
  -3.000  -0.3341   0.00546   0.00105  -0.0000  0.7841  0.1329  -1.1536   0.0000   0.2461
  -2.900  -0.3230   0.00542   0.00102  -0.0000  0.7740  0.1415  -1.1097   0.0000   0.2462
  -2.800  -0.3120   0.00538   0.00098   0.0000  0.7637  0.1504  -1.0668   0.0000   0.2463
  -2.700  -0.3009   0.00535   0.00095   0.0000  0.7533  0.1595  -1.0242   0.0000   0.2464
  -2.600  -0.2898   0.00531   0.00092   0.0000  0.7428  0.1691  -0.9844   0.0000   0.2465
  -2.500  -0.2788   0.00528   0.00089   0.0001  0.7323  0.1787  -0.9450   0.0000   0.2466
  -2.400  -0.2677   0.00524   0.00086   0.0001  0.7216  0.1888  -0.9067   0.0000   0.2467
  -2.300  -0.2566   0.00521   0.00084   0.0001  0.7110  0.1989  -0.8702   0.0000   0.2468
  -2.100  -0.2344   0.00515   0.00079   0.0001  0.6896  0.2197  -0.8004   0.0000   0.2470
  -2.000  -0.2233   0.00512   0.00076   0.0001  0.6789  0.2306  -0.7670   0.0000   0.2470
  -1.900  -0.2122   0.00509   0.00074   0.0001  0.6681  0.2417  -0.7357   0.0000   0.2471
  -1.800  -0.2010   0.00506   0.00072   0.0001  0.6572  0.2528  -0.7049   0.0000   0.2472
  -1.700  -0.1899   0.00503   0.00070   0.0001  0.6463  0.2642  -0.6759   0.0000   0.2473
  -1.600  -0.1788   0.00501   0.00068   0.0001  0.6353  0.2752  -0.6477   0.0000   0.2473
  -1.500  -0.1676   0.00499   0.00066   0.0001  0.6243  0.2864  -0.6208   0.0000   0.2474
  -1.400  -0.1565   0.00497   0.00065   0.0001  0.6134  0.2976  -0.5953   0.0000   0.2474
  -1.300  -0.1453   0.00494   0.00063   0.0001  0.6024  0.3094  -0.5708   0.0000   0.2475
  -1.200  -0.1342   0.00492   0.00062   0.0001  0.5915  0.3208  -0.5475   0.0000   0.2475
  -1.100  -0.1230   0.00491   0.00061   0.0001  0.5806  0.3325  -0.5254   0.0000   0.2476
  -1.000  -0.1118   0.00489   0.00059   0.0001  0.5697  0.3438  -0.5043   0.0000   0.2476
  -0.900  -0.1007   0.00488   0.00059   0.0001  0.5587  0.3552  -0.4842   0.0000   0.2476
  -0.800  -0.0895   0.00486   0.00058   0.0001  0.5476  0.3666  -0.4654   0.0000   0.2477
  -0.700  -0.0783   0.00485   0.00057   0.0001  0.5365  0.3783  -0.4475   0.0000   0.2477
  -0.600  -0.0671   0.00484   0.00056   0.0001  0.5253  0.3899  -0.4304   0.0000   0.2477
  -0.500  -0.0559   0.00483   0.00055   0.0001  0.5142  0.4014  -0.4142   0.0000   0.2478
  -0.400  -0.0448   0.00483   0.00055   0.0000  0.5030  0.4128  -0.3987   0.0000   0.2478
  -0.300  -0.0336   0.00482   0.00055   0.0000  0.4920  0.4240  -0.3842   0.0000   0.2478
  -0.200  -0.0224   0.00482   0.00054   0.0000  0.4808  0.4354  -0.3703   0.0000   0.2478
  -0.100  -0.0112   0.00481   0.00054   0.0000  0.4696  0.4469  -0.3569   0.0000   0.2478
   0.000  -0.0000   0.00481   0.00054   0.0000  0.4583  0.4583  -0.3441   0.0000   0.3465
   0.100   0.0112   0.00481   0.00054  -0.0000  0.4469  0.4696  -0.3569   0.0000   0.2478
   0.200   0.0224   0.00482   0.00054  -0.0000  0.4354  0.4808  -0.3703   0.0000   0.2478
   0.300   0.0336   0.00482   0.00055  -0.0000  0.4240  0.4920  -0.3842   0.0000   0.2478
   0.400   0.0448   0.00483   0.00055  -0.0000  0.4127  0.5030  -0.3987   0.0000   0.2478
   0.500   0.0559   0.00483   0.00055  -0.0001  0.4014  0.5142  -0.4142   0.0000   0.2478
   0.600   0.0671   0.00484   0.00056  -0.0001  0.3899  0.5253  -0.4304   0.0000   0.2477
   0.700   0.0783   0.00485   0.00057  -0.0001  0.3783  0.5365  -0.4475   0.0000   0.2477
   0.800   0.0895   0.00486   0.00058  -0.0001  0.3666  0.5476  -0.4654   0.0000   0.2477
   0.900   0.1007   0.00488   0.00059  -0.0001  0.3552  0.5587  -0.4842   0.0000   0.2476
   1.000   0.1118   0.00489   0.00059  -0.0001  0.3438  0.5697  -0.5043   0.0000   0.2476
   1.100   0.1230   0.00491   0.00061  -0.0001  0.3325  0.5806  -0.5254   0.0000   0.2476
   1.200   0.1342   0.00492   0.00062  -0.0001  0.3208  0.5915  -0.5475   0.0000   0.2476
   1.300   0.1453   0.00494   0.00063  -0.0001  0.3094  0.6024  -0.5708   0.0000   0.2475
   1.400   0.1565   0.00497   0.00065  -0.0001  0.2976  0.6134  -0.5953   0.0000   0.2474
   1.500   0.1676   0.00499   0.00066  -0.0001  0.2864  0.6243  -0.6208   0.0000   0.2474
   1.600   0.1788   0.00501   0.00068  -0.0001  0.2752  0.6353  -0.6477   0.0000   0.2473
   1.700   0.1899   0.00503   0.00070  -0.0001  0.2642  0.6463  -0.6759   0.0000   0.2473
   1.800   0.2010   0.00506   0.00072  -0.0001  0.2528  0.6572  -0.7049   0.0000   0.2472
   1.900   0.2122   0.00509   0.00074  -0.0001  0.2417  0.6681  -0.7357   0.0000   0.2471
   2.000   0.2233   0.00512   0.00076  -0.0001  0.2306  0.6789  -0.7670   0.0000   0.2471
   2.100   0.2344   0.00515   0.00079  -0.0001  0.2197  0.6896  -0.8004   0.0000   0.2470
   2.300   0.2566   0.00521   0.00084  -0.0001  0.1989  0.7110  -0.8702   0.0000   0.2468
   2.400   0.2677   0.00524   0.00086  -0.0001  0.1888  0.7216  -0.9067   0.0000   0.2467
   2.500   0.2788   0.00528   0.00089  -0.0001  0.1787  0.7323  -0.9450   0.0000   0.2466
   2.600   0.2898   0.00531   0.00092  -0.0000  0.1691  0.7428  -0.9844   0.0000   0.2465
   2.700   0.3009   0.00535   0.00095  -0.0000  0.1595  0.7533  -1.0243   0.0000   0.2464
   2.800   0.3120   0.00538   0.00098  -0.0000  0.1504  0.7637  -1.0668   0.0000   0.2463
   2.900   0.3230   0.00542   0.00102   0.0000  0.1415  0.7740  -1.1097   0.0000   0.2462
   3.000   0.3341   0.00546   0.00105   0.0000  0.1329  0.7841  -1.1536   0.0000   0.2461
   3.100   0.3451   0.00550   0.00109   0.0001  0.1248  0.7941  -1.1999   0.0000   0.2460
   3.200   0.3561   0.00554   0.00112   0.0001  0.1166  0.8040  -1.2467   0.0000   0.2458
   3.300   0.3671   0.00558   0.00116   0.0001  0.1093  0.8137  -1.2939   0.0000   0.2457
   3.400   0.3782   0.00562   0.00120   0.0002  0.1031  0.8232  -1.3446   0.0000   0.2456
   3.500   0.3892   0.00566   0.00124   0.0002  0.0966  0.8325  -1.3957   0.0000   0.2455
   3.600   0.4002   0.00570   0.00128   0.0003  0.0898  0.8415  -1.4472   0.0000   0.2453
   3.700   0.4112   0.00574   0.00132   0.0003  0.0844  0.8504  -1.4994   0.0000   0.2452
   3.800   0.4223   0.00578   0.00136   0.0003  0.0795  0.8591  -1.5552   0.0000   0.2451
   3.900   0.4332   0.00583   0.00140   0.0004  0.0738  0.8676  -1.6113   0.0000   0.2449
   4.000   0.4441   0.00586   0.00145   0.0005  0.0696  0.8758  -1.6683   0.0000   0.2447
   4.100   0.4551   0.00591   0.00149   0.0005  0.0654  0.8835  -1.7257   0.0000   0.2446
   4.200   0.4660   0.00595   0.00154   0.0006  0.0616  0.8910  -1.7856   0.0000   0.2444
   4.400   0.4878   0.00604   0.00163   0.0007  0.0543  0.9055  -1.9102   0.0000   0.2440
   4.500   0.4987   0.00608   0.00168   0.0008  0.0514  0.9121  -1.9735   0.0000   0.2438
   4.600   0.5096   0.00613   0.00172   0.0009  0.0487  0.9185  -2.0375   0.0000   0.2436
   4.700   0.5204   0.00618   0.00177   0.0010  0.0458  0.9248  -2.1017   0.0000   0.2434
   4.800   0.5312   0.00622   0.00182   0.0011  0.0436  0.9305  -2.1696   0.0000   0.2432
   4.900   0.5419   0.00628   0.00188   0.0012  0.0406  0.9363  -2.2388   0.0000   0.2430
   5.000   0.5527   0.00632   0.00192   0.0013  0.0392  0.9415  -2.3089   0.0000   0.2427
   5.100   0.5634   0.00638   0.00198   0.0014  0.0372  0.9466  -2.3797   0.0000   0.2425
   5.200   0.5740   0.00643   0.00203   0.0016  0.0353  0.9514  -2.4505   0.0000   0.2422
   5.300   0.5847   0.00648   0.00208   0.0017  0.0340  0.9560  -2.5229   0.0000   0.2420
   5.400   0.5951   0.00654   0.00214   0.0019  0.0322  0.9602  -2.5947   0.0000   0.2416
   5.500   0.6057   0.00659   0.00219   0.0021  0.0308  0.9645  -2.6708   0.0000   0.2414
   5.600   0.6163   0.00664   0.00224   0.0022  0.0296  0.9681  -2.7489   0.0000   0.2411
   5.700   0.6267   0.00671   0.00230   0.0024  0.0282  0.9719  -2.8272   0.0000   0.2408
   5.800   0.6374   0.00677   0.00236   0.0025  0.0270  0.9752  -2.9070   0.0000   0.2406
   5.900   0.6481   0.00682   0.00241   0.0026  0.0262  0.9781  -2.9881   0.0000   0.2404
   6.000   0.6589   0.00689   0.00247   0.0027  0.0252  0.9812  -3.0700   0.0000   0.2402
   6.100   0.6699   0.00696   0.00253   0.0028  0.0239  0.9836  -3.1531   0.0000   0.2401
   6.200   0.6815   0.00702   0.00259   0.0027  0.0232  0.9856  -3.2399   0.0000   0.2403
   6.300   0.6929   0.00708   0.00265   0.0026  0.0224  0.9877  -3.3271   0.0000   0.2404
   6.400   0.7039   0.00716   0.00271   0.0027  0.0215  0.9899  -3.4156   0.0000   0.2403
   6.500   0.7163   0.00723   0.00278   0.0024  0.0206  0.9910  -3.5124   0.0000   0.2406
   6.600   0.7287   0.00730   0.00284   0.0021  0.0201  0.9920  -3.6111   0.0000   0.2410
   6.700   0.7410   0.00737   0.00290   0.0018  0.0195  0.9930  -3.7098   0.0000   0.2413
   6.800   0.7530   0.00745   0.00298   0.0016  0.0188  0.9941  -3.8086   0.0000   0.2416
   6.900   0.7650   0.00754   0.00305   0.0014  0.0179  0.9952  -3.9075   0.0000   0.2418
   7.000   0.7770   0.00760   0.00312   0.0012  0.0176  0.9961  -4.0086   0.0000   0.2420
   7.100   0.7896   0.00768   0.00319   0.0009  0.0172  0.9965  -4.1129   0.0000   0.2423
   7.200   0.8024   0.00776   0.00326   0.0005  0.0166  0.9967  -4.2191   0.0000   0.2428
   7.300   0.8151   0.00785   0.00334   0.0001  0.0159  0.9970  -4.3255   0.0000   0.2431
   7.400   0.8278   0.00794   0.00343  -0.0003  0.0154  0.9973  -4.4327   0.0000   0.2435
   7.500   0.8405   0.00801   0.00350  -0.0007  0.0152  0.9976  -4.5423   0.0000   0.2438
   7.600   0.8531   0.00809   0.00357  -0.0010  0.0149  0.9979  -4.6575   0.0000   0.2441
   7.700   0.8657   0.00817   0.00365  -0.0014  0.0145  0.9982  -4.7735   0.0000   0.2444
   7.800   0.8782   0.00827   0.00373  -0.0017  0.0141  0.9986  -4.8901   0.0000   0.2447
   7.900   0.8906   0.00837   0.00383  -0.0020  0.0135  0.9989  -5.0068   0.0000   0.2449
   8.000   0.9031   0.00846   0.00392  -0.0024  0.0132  0.9992  -5.1252   0.0000   0.2451
   8.100   0.9156   0.00853   0.00400  -0.0027  0.0131  0.9995  -5.2456   0.0000   0.2454
   8.200   0.9280   0.00862   0.00408  -0.0030  0.0128  0.9997  -5.3668   0.0000   0.2456
   8.300   0.9404   0.00871   0.00416  -0.0034  0.0125  0.9999  -5.4890   0.0000   0.2457
   8.400   0.9509   0.00880   0.00425  -0.0033  0.0122  1.0000  -5.6023   0.0000   0.2455
   8.500   0.9603   0.00889   0.00434  -0.0029  0.0119  1.0000  -5.7101   0.0000   0.2450
   8.600   0.9697   0.00899   0.00444  -0.0025  0.0116  1.0000  -5.8179   0.0000   0.2445
   8.700   0.9792   0.00908   0.00453  -0.0022  0.0113  1.0000  -5.9277   0.0000   0.2440
   8.800   0.9889   0.00916   0.00461  -0.0019  0.0112  1.0000  -6.0404   0.0000   0.2436
   8.900   0.9986   0.00924   0.00469  -0.0017  0.0111  1.0000  -6.1542   0.0000   0.2432
   9.000   1.0084   0.00932   0.00478  -0.0014  0.0110  1.0000  -6.2688   0.0000   0.2428
   9.100   1.0182   0.00941   0.00487  -0.0012  0.0108  1.0000  -6.3843   0.0000   0.2424
   9.200   1.0280   0.00951   0.00496  -0.0009  0.0106  1.0000  -6.5010   0.0000   0.2420
   9.300   1.0378   0.00961   0.00506  -0.0006  0.0104  1.0000  -6.6236   0.0000   0.2416
   9.400   1.0476   0.00971   0.00516  -0.0004  0.0102  1.0000  -6.7471   0.0000   0.2413
   9.500   1.0574   0.00982   0.00527  -0.0002  0.0100  1.0000  -6.8710   0.0000   0.2409
   9.600   1.0672   0.00995   0.00541   0.0001  0.0097  1.0000  -6.9943   0.0000   0.2406
   9.700   1.0773   0.01005   0.00550   0.0002  0.0096  1.0000  -7.1224   0.0000   0.2403
   9.800   1.0875   0.01014   0.00560   0.0004  0.0095  1.0000  -7.2524   0.0000   0.2400
   9.900   1.0977   0.01023   0.00569   0.0005  0.0094  1.0000  -7.3834   0.0000   0.2397
  10.000   1.1079   0.01033   0.00579   0.0007  0.0093  1.0000  -7.5154   0.0000   0.2395
  10.100   1.1181   0.01043   0.00590   0.0008  0.0092  1.0000  -7.6483   0.0000   0.2392
  10.200   1.1282   0.01054   0.00600   0.0010  0.0091  1.0000  -7.7821   0.0000   0.2390
  10.300   1.1384   0.01065   0.00611   0.0011  0.0089  1.0000  -7.9167   0.0000   0.2387
  10.400   1.1485   0.01076   0.00623   0.0013  0.0088  1.0000  -8.0521   0.0000   0.2385
  10.500   1.1586   0.01088   0.00635   0.0014  0.0086  1.0000  -8.1878   0.0000   0.2382
  10.600   1.1686   0.01101   0.00649   0.0016  0.0084  1.0000  -8.3233   0.0000   0.2379
  10.700   1.1785   0.01116   0.00664   0.0018  0.0083  1.0000  -8.4580   0.0000   0.2377
  10.800   1.1883   0.01132   0.00680   0.0019  0.0081  1.0000  -8.5921   0.0000   0.2374
  10.900   1.1985   0.01142   0.00691   0.0021  0.0080  1.0000  -8.7330   0.0000   0.2372
  11.000   1.2087   0.01153   0.00702   0.0022  0.0080  1.0000  -8.8746   0.0000   0.2369
  11.100   1.2189   0.01164   0.00714   0.0023  0.0079  1.0000  -9.0168   0.0000   0.2367
  11.200   1.2290   0.01176   0.00726   0.0024  0.0079  1.0000  -9.1597   0.0000   0.2364
  11.300   1.2390   0.01188   0.00739   0.0026  0.0078  1.0000  -9.3032   0.0000   0.2362
  11.400   1.2491   0.01200   0.00751   0.0027  0.0077  1.0000  -9.4475   0.0000   0.2360
  11.500   1.2591   0.01212   0.00764   0.0029  0.0076  1.0000  -9.5923   0.0000   0.2357
  11.600   1.2690   0.01225   0.00778   0.0030  0.0075  1.0000  -9.7377   0.0000   0.2355
  11.700   1.2790   0.01239   0.00792   0.0032  0.0075  1.0000  -9.8838   0.0000   0.2352
  11.800   1.2888   0.01253   0.00806   0.0033  0.0074  1.0000  -10.0303   0.0000   0.2350
  11.900   1.2986   0.01267   0.00821   0.0035  0.0073  1.0000  -10.1814   0.0000   0.2347
  12.000   1.3084   0.01282   0.00837   0.0036  0.0072  1.0000  -10.3344   0.0000   0.2344
  12.100   1.3180   0.01298   0.00853   0.0038  0.0071  1.0000  -10.4873   0.0000   0.2342
  12.200   1.3276   0.01316   0.00871   0.0040  0.0069  1.0000  -10.6394   0.0000   0.2339
  12.300   1.3369   0.01335   0.00891   0.0042  0.0068  1.0000  -10.7901   0.0000   0.2336
  12.400   1.3461   0.01356   0.00914   0.0045  0.0067  1.0000  -10.9390   0.0000   0.2333
  12.500   1.3559   0.01369   0.00928   0.0046  0.0066  1.0000  -11.0980   0.0000   0.2330
  12.600   1.3656   0.01383   0.00942   0.0048  0.0066  1.0000  -11.2577   0.0000   0.2328
  12.700   1.3753   0.01397   0.00957   0.0050  0.0066  1.0000  -11.4180   0.0000   0.2325
  12.800   1.3849   0.01411   0.00972   0.0051  0.0066  1.0000  -11.5788   0.0000   0.2322
  12.900   1.3945   0.01426   0.00988   0.0053  0.0065  1.0000  -11.7403   0.0000   0.2320
  13.000   1.4040   0.01441   0.01004   0.0055  0.0065  1.0000  -11.9022   0.0000   0.2317
  13.100   1.4135   0.01456   0.01020   0.0057  0.0064  1.0000  -12.0646   0.0000   0.2314
  13.200   1.4229   0.01472   0.01036   0.0059  0.0064  1.0000  -12.2275   0.0000   0.2311
  13.300   1.4323   0.01488   0.01053   0.0061  0.0063  1.0000  -12.3908   0.0000   0.2309
  13.400   1.4416   0.01504   0.01071   0.0063  0.0062  1.0000  -12.5543   0.0000   0.2306
  13.500   1.4508   0.01521   0.01089   0.0065  0.0062  1.0000  -12.7179   0.0000   0.2303
  13.600   1.4599   0.01539   0.01107   0.0067  0.0061  1.0000  -12.8817   0.0000   0.2300
  13.700   1.4690   0.01557   0.01126   0.0070  0.0061  1.0000  -13.0457   0.0000   0.2297
  13.800   1.4779   0.01576   0.01146   0.0072  0.0060  1.0000  -13.2097   0.0000   0.2294
  13.900   1.4868   0.01595   0.01166   0.0075  0.0060  1.0000  -13.3736   0.0000   0.2290
  14.000   1.4955   0.01615   0.01187   0.0077  0.0059  1.0000  -13.5373   0.0000   0.2287
  14.100   1.5042   0.01636   0.01209   0.0080  0.0058  1.0000  -13.7004   0.0000   0.2284
  14.200   1.5127   0.01658   0.01232   0.0083  0.0058  1.0000  -13.8624   0.0000   0.2280
  14.300   1.5210   0.01682   0.01257   0.0086  0.0057  1.0000  -14.0227   0.0000   0.2277
  14.400   1.5291   0.01707   0.01284   0.0090  0.0056  1.0000  -14.1808   0.0000   0.2273
  14.500   1.5369   0.01734   0.01313   0.0094  0.0055  1.0000  -14.3365   0.0000   0.2269
  14.600   1.5445   0.01764   0.01345   0.0098  0.0054  1.0000  -14.4890   0.0000   0.2265
  14.700   1.5528   0.01784   0.01367   0.0101  0.0054  1.0000  -14.6552   0.0000   0.2262
  14.800   1.5612   0.01804   0.01388   0.0104  0.0054  1.0000  -14.8229   0.0000   0.2258
  14.900   1.5695   0.01825   0.01410   0.0107  0.0054  1.0000  -14.9904   0.0000   0.2255
  15.000   1.5777   0.01845   0.01432   0.0110  0.0054  1.0000  -15.1576   0.0000   0.2251
  15.100   1.5857   0.01867   0.01455   0.0113  0.0053  1.0000  -15.3245   0.0000   0.2247
  15.200   1.5936   0.01888   0.01478   0.0117  0.0053  1.0000  -15.4910   0.0000   0.2244
  15.300   1.6015   0.01911   0.01502   0.0120  0.0053  1.0000  -15.6570   0.0000   0.2240
  15.400   1.6091   0.01934   0.01526   0.0124  0.0053  1.0000  -15.8225   0.0000   0.2236
  15.500   1.6167   0.01957   0.01551   0.0128  0.0053  1.0000  -15.9873   0.0000   0.2232
  15.600   1.6241   0.01981   0.01576   0.0132  0.0052  1.0000  -16.1514   0.0000   0.2228
  15.700   1.6313   0.02006   0.01603   0.0136  0.0052  1.0000  -16.3147   0.0000   0.2224
  15.800   1.6384   0.02031   0.01629   0.0141  0.0052  1.0000  -16.4772   0.0000   0.2220
  15.900   1.6453   0.02057   0.01657   0.0145  0.0051  1.0000  -16.6386   0.0000   0.2215
  16.000   1.6520   0.02083   0.01685   0.0150  0.0051  1.0000  -16.7989   0.0000   0.2211
  16.100   1.6585   0.02110   0.01713   0.0155  0.0051  1.0000  -16.9579   0.0000   0.2206
  16.200   1.6648   0.02138   0.01743   0.0160  0.0051  1.0000  -17.1154   0.0000   0.2201
  16.300   1.6707   0.02166   0.01773   0.0166  0.0050  1.0000  -17.2698   0.0000   0.2196
  16.400   1.6758   0.02194   0.01803   0.0174  0.0050  1.0000  -17.4159   0.0000   0.2190
  16.500   1.6800   0.02223   0.01834   0.0182  0.0050  1.0000  -17.5550   0.0000   0.2183
  16.600   1.6839   0.02254   0.01866   0.0191  0.0049  1.0000  -17.6927   0.0000   0.2176
  16.700   1.6875   0.02286   0.01901   0.0200  0.0049  1.0000  -17.8312   0.0000   0.2169
  16.800   1.6910   0.02321   0.01937   0.0209  0.0049  1.0000  -17.9680   0.0000   0.2163
  16.900   1.6943   0.02357   0.01975   0.0217  0.0049  1.0000  -18.1030   0.0000   0.2156
  17.000   1.6975   0.02395   0.02015   0.0225  0.0048  1.0000  -18.2363   0.0000   0.2149
  17.100   1.7004   0.02436   0.02058   0.0233  0.0048  1.0000  -18.3675   0.0000   0.2143
  17.200   1.7032   0.02479   0.02104   0.0241  0.0048  1.0000  -18.4965   0.0000   0.2137
  17.300   1.7057   0.02525   0.02152   0.0248  0.0048  1.0000  -18.6232   0.0000   0.2130
  17.400   1.7081   0.02574   0.02203   0.0255  0.0047  1.0000  -18.7472   0.0000   0.2125
  17.500   1.7102   0.02626   0.02258   0.0261  0.0047  1.0000  -18.8685   0.0000   0.2119
  17.600   1.7120   0.02682   0.02316   0.0267  0.0047  1.0000  -18.9864   0.0000   0.2113
  17.700   1.7136   0.02742   0.02379   0.0273  0.0047  1.0000  -19.1009   0.0000   0.2108
  17.800   1.7148   0.02807   0.02447   0.0278  0.0046  1.0000  -19.2109   0.0000   0.2103
  17.900   1.7157   0.02877   0.02520   0.0283  0.0046  1.0000  -19.3167   0.0000   0.2098
  18.000   1.7163   0.02953   0.02599   0.0287  0.0046  1.0000  -19.4177   0.0000   0.2093
  18.100   1.7164   0.03035   0.02684   0.0290  0.0045  1.0000  -19.5131   0.0000   0.2089
  18.200   1.7162   0.03125   0.02777   0.0293  0.0045  1.0000  -19.6030   0.0000   0.2085
  18.300   1.7155   0.03222   0.02878   0.0295  0.0045  1.0000  -19.6863   0.0000   0.2082
  18.400   1.7144   0.03328   0.02988   0.0296  0.0044  1.0000  -19.7626   0.0000   0.2079
  18.500   1.7128   0.03444   0.03107   0.0295  0.0044  1.0000  -19.8320   0.0000   0.2076
  18.600   1.7106   0.03570   0.03238   0.0294  0.0044  1.0000  -19.8927   0.0000   0.2074
  18.700   1.7078   0.03708   0.03380   0.0291  0.0043  1.0000  -19.9445   0.0000   0.2073
  18.800   1.7045   0.03859   0.03535   0.0287  0.0043  1.0000  -19.9874   0.0000   0.2072
  18.900   1.7012   0.04014   0.03695   0.0282  0.0043  1.0000  -20.0293   0.0000   0.2072
  19.000   1.6993   0.04156   0.03840   0.0277  0.0043  1.0000  -20.0923   0.0000   0.2073
  19.100   1.6970   0.04309   0.03997   0.0271  0.0043  1.0000  -20.1474   0.0000   0.2073
  19.200   1.6941   0.04473   0.04165   0.0264  0.0043  1.0000  -20.1933   0.0000   0.2075
  19.300   1.6904   0.04651   0.04347   0.0256  0.0043  1.0000  -20.2275   0.0000   0.2077
  19.400   1.6859   0.04844   0.04544   0.0246  0.0043  1.0000  -20.2488   0.0000   0.2079
  19.500   1.6806   0.05053   0.04758   0.0235  0.0043  1.0000  -20.2569   0.0000   0.2082
  19.600   1.6742   0.05281   0.04991   0.0223  0.0043  1.0000  -20.2487   0.0000   0.2086
  19.700   1.6665   0.05532   0.05246   0.0210  0.0043  1.0000  -20.2194   0.0000   0.2091
  19.800   1.6574   0.05809   0.05528   0.0195  0.0043  1.0000  -20.1674   0.0000   0.2097
  19.900   1.6468   0.06114   0.05839   0.0177  0.0043  1.0000  -20.0903   0.0000   0.2103
  20.000   1.6338   0.06458   0.06189   0.0158  0.0043  1.0000  -19.9758   0.0000   0.2112
  20.100   1.6182   0.06846   0.06584   0.0136  0.0043  1.0000  -19.8201   0.0000   0.2121
  20.200   1.5994   0.07294   0.07039   0.0111  0.0043  1.0000  -19.6097   0.0000   0.2133
  20.300   1.5756   0.07829   0.07583   0.0081  0.0043  1.0000  -19.3176   0.0000   0.2149
  20.400   1.5448   0.08491   0.08255   0.0043  0.0043  1.0000  -18.9092   0.0000   0.2169
  20.500   1.5134   0.09175   0.08947   0.0005  0.0043  1.0000  -18.4808   0.0000   0.2192
  20.600   1.4908   0.09712   0.09492  -0.0025  0.0044  1.0000  -18.1874   0.0000   0.2209
  20.700   1.4658   0.10298   0.10085  -0.0057  0.0044  1.0000  -17.8468   0.0000   0.2229
  20.800   1.4367   0.10970   0.10766  -0.0095  0.0045  1.0000  -17.4257   0.0000   0.2255
  20.900   1.4034   0.11727   0.11532  -0.0139  0.0045  1.0000  -16.9187   0.0000   0.2286
  21.000   1.3601   0.12698   0.12515  -0.0197  0.0046  1.0000  -16.2092   0.0000   0.2330
  21.100   1.2935   0.14181   0.14015  -0.0290  0.0048  1.0000  -15.0119   0.0000   0.2410
  21.200   1.2003   0.16375   0.16233  -0.0437  0.0049  1.0000  -13.1213   0.0000   0.2555
  21.300   1.1590   0.17533   0.17402  -0.0517  0.0050  1.0000  -12.1879   0.0000   0.2639
  21.400   1.1388   0.18222   0.18097  -0.0565  0.0050  1.0000  -11.6953   0.0000   0.2690
  21.500   1.1236   0.18801   0.18681  -0.0606  0.0050  1.0000  -11.2997   0.0000   0.2734
  21.600   1.1168   0.19168   0.19051  -0.0632  0.0050  1.0000  -11.1097   0.0000   0.2759
  21.700   1.1072   0.19613   0.19498  -0.0664  0.0049  1.0000  -10.8333   0.0000   0.2793
  21.800   1.1035   0.19908   0.19795  -0.0685  0.0049  1.0000  -10.7081   0.0000   0.2813
  21.900   1.0960   0.20319   0.20209  -0.0714  0.0049  1.0000  -10.4657   0.0000   0.2843
  22.000   1.0940   0.20566   0.20458  -0.0732  0.0049  1.0000  -10.3785   0.0000   0.2860
  22.100   1.0885   0.20928   0.20822  -0.0758  0.0048  1.0000  -10.1735   0.0000   0.2887
  22.200   1.0868   0.21178   0.21073  -0.0776  0.0048  1.0000  -10.0849   0.0000   0.2903
  22.300   1.0858   0.21409   0.21305  -0.0793  0.0048  1.0000  -10.0132   0.0000   0.2918
  22.400   1.0824   0.21717   0.21615  -0.0815  0.0047  1.0000  -9.8559   0.0000   0.2940
  22.500   1.0808   0.21968   0.21867  -0.0834  0.0047  1.0000  -9.7576   0.0000   0.2957
  22.600   1.0804   0.22184   0.22084  -0.0850  0.0047  1.0000  -9.6947   0.0000   0.2971
  22.700   1.0799   0.22403   0.22304  -0.0866  0.0046  1.0000  -9.6265   0.0000   0.2985
  22.800   1.0776   0.22686   0.22589  -0.0886  0.0045  1.0000  -9.4849   0.0000   0.3005
  22.900   1.0776   0.22892   0.22795  -0.0902  0.0045  1.0000  -9.4261   0.0000   0.3018
  23.000   1.0782   0.23078   0.22981  -0.0916  0.0044  1.0000  -9.3890   0.0000   0.3029
  23.100   1.0789   0.23264   0.23168  -0.0931  0.0043  1.0000  -9.3480   0.0000   0.3040
  23.200   1.0793   0.23462   0.23367  -0.0946  0.0043  1.0000  -9.2946   0.0000   0.3052
  23.300   1.0780   0.23722   0.23629  -0.0965  0.0043  1.0000  -9.1666   0.0000   0.3070
  23.400   1.0775   0.23957   0.23865  -0.0982  0.0043  1.0000  -9.0679   0.0000   0.3085
  23.500   1.0777   0.24167   0.24077  -0.0998  0.0042  1.0000  -8.9952   0.0000   0.3098
  23.600   1.0753   0.24482   0.24394  -0.1020  0.0042  1.0000  -8.7960   0.0000   0.3121
  23.700   1.0743   0.24748   0.24661  -0.1039  0.0042  1.0000  -8.6496   0.0000   0.3139
  23.800   1.0688   0.25219   0.25136  -0.1070  0.0041  1.0000  -8.2521   0.0000   0.3175


