xflr5 v6.47

 Calculated polar for: NACA 0010

 1 1 Reynolds number fixed          Mach number fixed         

 xtrf =   1.000 (top)        1.000 (bottom)
 Mach =   0.000     Re =     6.000 e 6     Ncrit =   9.000

  alpha     CL        CD       CDp       Cm    Top Xtr Bot Xtr   Cpmin    Chinge    XCp    
 ------- -------- --------- --------- -------- ------- ------- -------- --------- ---------
 -23.000  -1.0836   0.22822   0.22729   0.0900  1.0000  0.0042  -9.6466   0.0000   0.3007
 -22.900  -1.0860   0.22539   0.22445   0.0879  1.0000  0.0043  -9.7904   0.0000   0.2987
 -22.800  -1.0861   0.22334   0.22238   0.0863  1.0000  0.0043  -9.8459   0.0000   0.2974
 -22.700  -1.0860   0.22139   0.22042   0.0849  1.0000  0.0043  -9.8885   0.0000   0.2962
 -22.600  -1.0860   0.21943   0.21846   0.0834  1.0000  0.0043  -9.9316   0.0000   0.2950
 -22.500  -1.0890   0.21650   0.21550   0.0812  1.0000  0.0043  -10.0797   0.0000   0.2929
 -22.400  -1.0913   0.21376   0.21275   0.0792  1.0000  0.0044  -10.1992   0.0000   0.2910
 -22.300  -1.0932   0.21124   0.21022   0.0773  1.0000  0.0044  -10.2975   0.0000   0.2893
 -22.200  -1.1001   0.20722   0.20617   0.0744  1.0000  0.0045  -10.5491   0.0000   0.2862
 -22.100  -1.1043   0.20405   0.20299   0.0721  1.0000  0.0045  -10.7071   0.0000   0.2839
 -22.000  -1.1149   0.19909   0.19799   0.0686  1.0000  0.0046  -11.0411   0.0000   0.2801
 -21.900  -1.1215   0.19540   0.19427   0.0659  1.0000  0.0046  -11.2461   0.0000   0.2774
 -21.800  -1.1372   0.18938   0.18821   0.0616  1.0000  0.0046  -11.6820   0.0000   0.2727
 -21.700  -1.1576   0.18233   0.18110   0.0566  1.0000  0.0046  -12.2091   0.0000   0.2673
 -21.600  -1.1926   0.17196   0.17063   0.0492  1.0000  0.0045  -13.0503   0.0000   0.2595
 -21.500  -1.2315   0.16129   0.15985   0.0418  1.0000  0.0045  -13.9021   0.0000   0.2520
 -21.400  -1.2680   0.15166   0.15012   0.0352  1.0000  0.0044  -14.6407   0.0000   0.2458
 -21.300  -1.4126   0.12128   0.11940   0.0156  1.0000  0.0042  -17.3365   0.0000   0.2287
 -21.200  -1.4945   0.10489   0.10280   0.0059  1.0000  0.0042  -18.6881   0.0000   0.2217
 -21.100  -1.5402   0.09547   0.09325   0.0006  1.0000  0.0042  -19.3777   0.0000   0.2183
 -21.000  -1.5750   0.08810   0.08578  -0.0036  1.0000  0.0041  -19.8701   0.0000   0.2159
 -20.900  -1.6031   0.08201   0.07960  -0.0070  1.0000  0.0041  -20.2428   0.0000   0.2141
 -20.800  -1.6263   0.07677   0.07428  -0.0100  1.0000  0.0041  -20.5317   0.0000   0.2126
 -20.700  -1.6458   0.07222   0.06966  -0.0125  1.0000  0.0041  -20.7563   0.0000   0.2114
 -20.600  -1.6625   0.06818   0.06556  -0.0147  1.0000  0.0041  -20.9325   0.0000   0.2104
 -20.500  -1.6768   0.06455   0.06186  -0.0167  1.0000  0.0041  -21.0692   0.0000   0.2096
 -20.400  -1.6893   0.06127   0.05853  -0.0185  1.0000  0.0041  -21.1744   0.0000   0.2089
 -20.300  -1.6998   0.05831   0.05551  -0.0201  1.0000  0.0041  -21.2487   0.0000   0.2083
 -20.200  -1.7090   0.05559   0.05274  -0.0216  1.0000  0.0041  -21.3000   0.0000   0.2078
 -20.100  -1.7169   0.05309   0.05020  -0.0229  1.0000  0.0041  -21.3312   0.0000   0.2074
 -20.000  -1.7237   0.05080   0.04786  -0.0240  1.0000  0.0041  -21.3439   0.0000   0.2071
 -19.900  -1.7294   0.04868   0.04570  -0.0251  1.0000  0.0041  -21.3398   0.0000   0.2068
 -19.800  -1.7343   0.04672   0.04370  -0.0260  1.0000  0.0041  -21.3223   0.0000   0.2066
 -19.700  -1.7385   0.04491   0.04184  -0.0268  1.0000  0.0041  -21.2932   0.0000   0.2064
 -19.600  -1.7420   0.04322   0.04012  -0.0276  1.0000  0.0041  -21.2525   0.0000   0.2063
 -19.500  -1.7448   0.04165   0.03851  -0.0282  1.0000  0.0041  -21.2015   0.0000   0.2062
 -19.400  -1.7470   0.04019   0.03702  -0.0287  1.0000  0.0041  -21.1425   0.0000   0.2062
 -19.300  -1.7489   0.03883   0.03562  -0.0291  1.0000  0.0042  -21.0762   0.0000   0.2063
 -19.200  -1.7502   0.03756   0.03432  -0.0294  1.0000  0.0042  -21.0019   0.0000   0.2064
 -19.100  -1.7510   0.03638   0.03311  -0.0297  1.0000  0.0042  -20.9206   0.0000   0.2065
 -19.000  -1.7515   0.03528   0.03197  -0.0298  1.0000  0.0042  -20.8339   0.0000   0.2066
 -18.900  -1.7517   0.03425   0.03091  -0.0299  1.0000  0.0042  -20.7423   0.0000   0.2069
 -18.800  -1.7515   0.03328   0.02992  -0.0299  1.0000  0.0042  -20.6447   0.0000   0.2071
 -18.700  -1.7509   0.03238   0.02899  -0.0299  1.0000  0.0042  -20.5429   0.0000   0.2074
 -18.600  -1.7502   0.03154   0.02812  -0.0298  1.0000  0.0042  -20.4373   0.0000   0.2077
 -18.500  -1.7491   0.03075   0.02730  -0.0296  1.0000  0.0042  -20.3279   0.0000   0.2080
 -18.400  -1.7478   0.03000   0.02653  -0.0293  1.0000  0.0042  -20.2145   0.0000   0.2084
 -18.300  -1.7463   0.02931   0.02581  -0.0290  1.0000  0.0042  -20.0983   0.0000   0.2088
 -18.200  -1.7445   0.02865   0.02513  -0.0287  1.0000  0.0043  -19.9792   0.0000   0.2092
 -18.100  -1.7425   0.02804   0.02449  -0.0283  1.0000  0.0043  -19.8570   0.0000   0.2096
 -18.000  -1.7404   0.02746   0.02389  -0.0278  1.0000  0.0043  -19.7327   0.0000   0.2101
 -17.900  -1.7380   0.02691   0.02332  -0.0273  1.0000  0.0043  -19.6057   0.0000   0.2106
 -17.800  -1.7355   0.02640   0.02278  -0.0268  1.0000  0.0043  -19.4766   0.0000   0.2111
 -17.700  -1.7328   0.02591   0.02228  -0.0262  1.0000  0.0043  -19.3458   0.0000   0.2116
 -17.600  -1.7299   0.02545   0.02179  -0.0256  1.0000  0.0043  -19.2129   0.0000   0.2121
 -17.500  -1.7269   0.02502   0.02134  -0.0249  1.0000  0.0043  -19.0786   0.0000   0.2127
 -17.400  -1.7243   0.02457   0.02086  -0.0242  1.0000  0.0043  -18.9499   0.0000   0.2133
 -17.300  -1.7229   0.02405   0.02032  -0.0233  1.0000  0.0044  -18.8369   0.0000   0.2140
 -17.200  -1.7211   0.02358   0.01982  -0.0224  1.0000  0.0044  -18.7194   0.0000   0.2147
 -17.100  -1.7190   0.02314   0.01936  -0.0215  1.0000  0.0044  -18.5978   0.0000   0.2155
 -17.000  -1.7165   0.02274   0.01893  -0.0205  1.0000  0.0045  -18.4726   0.0000   0.2162
 -16.900  -1.7138   0.02236   0.01853  -0.0195  1.0000  0.0045  -18.3443   0.0000   0.2170
 -16.800  -1.7109   0.02201   0.01815  -0.0185  1.0000  0.0046  -18.2126   0.0000   0.2177
 -16.700  -1.7075   0.02168   0.01780  -0.0175  1.0000  0.0046  -18.0769   0.0000   0.2185
 -16.600  -1.7034   0.02137   0.01747  -0.0167  1.0000  0.0046  -17.9340   0.0000   0.2192
 -16.500  -1.6981   0.02106   0.01715  -0.0160  1.0000  0.0047  -17.7824   0.0000   0.2197
 -16.400  -1.6923   0.02076   0.01683  -0.0154  1.0000  0.0047  -17.6272   0.0000   0.2202
 -16.300  -1.6860   0.02048   0.01653  -0.0149  1.0000  0.0048  -17.4688   0.0000   0.2207
 -16.200  -1.6796   0.02020   0.01624  -0.0144  1.0000  0.0048  -17.3081   0.0000   0.2212
 -16.100  -1.6729   0.01993   0.01596  -0.0139  1.0000  0.0048  -17.1457   0.0000   0.2216
 -16.000  -1.6660   0.01967   0.01568  -0.0134  1.0000  0.0049  -16.9819   0.0000   0.2221
 -15.900  -1.6589   0.01942   0.01542  -0.0130  1.0000  0.0049  -16.8168   0.0000   0.2225
 -15.800  -1.6516   0.01917   0.01516  -0.0125  1.0000  0.0049  -16.6507   0.0000   0.2229
 -15.700  -1.6442   0.01893   0.01490  -0.0121  1.0000  0.0050  -16.4837   0.0000   0.2233
 -15.600  -1.6366   0.01870   0.01466  -0.0117  1.0000  0.0050  -16.3159   0.0000   0.2237
 -15.500  -1.6289   0.01847   0.01442  -0.0114  1.0000  0.0050  -16.1475   0.0000   0.2241
 -15.400  -1.6210   0.01825   0.01418  -0.0110  1.0000  0.0051  -15.9785   0.0000   0.2245
 -15.300  -1.6130   0.01803   0.01396  -0.0107  1.0000  0.0051  -15.8090   0.0000   0.2249
 -15.200  -1.6049   0.01782   0.01373  -0.0103  1.0000  0.0051  -15.6391   0.0000   0.2252
 -15.100  -1.5967   0.01762   0.01352  -0.0100  1.0000  0.0052  -15.4691   0.0000   0.2256
 -15.000  -1.5884   0.01741   0.01330  -0.0097  1.0000  0.0052  -15.2990   0.0000   0.2259
 -14.900  -1.5801   0.01722   0.01309  -0.0094  1.0000  0.0052  -15.1288   0.0000   0.2263
 -14.800  -1.5716   0.01702   0.01289  -0.0091  1.0000  0.0053  -14.9585   0.0000   0.2266
 -14.700  -1.5630   0.01683   0.01268  -0.0088  1.0000  0.0053  -14.7882   0.0000   0.2270
 -14.600  -1.5543   0.01664   0.01249  -0.0085  1.0000  0.0053  -14.6179   0.0000   0.2273
 -14.500  -1.5456   0.01646   0.01229  -0.0083  1.0000  0.0053  -14.4477   0.0000   0.2276
 -14.400  -1.5367   0.01628   0.01210  -0.0080  1.0000  0.0054  -14.2776   0.0000   0.2279
 -14.300  -1.5278   0.01611   0.01192  -0.0078  1.0000  0.0054  -14.1076   0.0000   0.2283
 -14.200  -1.5189   0.01594   0.01174  -0.0075  1.0000  0.0054  -13.9377   0.0000   0.2286
 -14.100  -1.5098   0.01577   0.01156  -0.0073  1.0000  0.0054  -13.7681   0.0000   0.2289
 -14.000  -1.5007   0.01561   0.01139  -0.0071  1.0000  0.0054  -13.5987   0.0000   0.2292
 -13.900  -1.4922   0.01537   0.01114  -0.0068  1.0000  0.0055  -13.4401   0.0000   0.2295
 -13.800  -1.4835   0.01515   0.01090  -0.0065  1.0000  0.0056  -13.2804   0.0000   0.2299
 -13.700  -1.4747   0.01494   0.01068  -0.0062  1.0000  0.0057  -13.1193   0.0000   0.2302
 -13.600  -1.4657   0.01474   0.01047  -0.0060  1.0000  0.0058  -12.9570   0.0000   0.2305
 -13.500  -1.4566   0.01455   0.01028  -0.0057  1.0000  0.0059  -12.7939   0.0000   0.2308
 -13.400  -1.4474   0.01438   0.01009  -0.0055  1.0000  0.0059  -12.6301   0.0000   0.2311
 -13.300  -1.4381   0.01421   0.00992  -0.0053  1.0000  0.0060  -12.4664   0.0000   0.2314
 -13.200  -1.4287   0.01404   0.00975  -0.0051  1.0000  0.0061  -12.3027   0.0000   0.2317
 -13.100  -1.4193   0.01388   0.00958  -0.0049  1.0000  0.0061  -12.1391   0.0000   0.2320
 -13.000  -1.4098   0.01373   0.00942  -0.0047  1.0000  0.0062  -11.9758   0.0000   0.2322
 -12.900  -1.4002   0.01358   0.00927  -0.0045  1.0000  0.0063  -11.8129   0.0000   0.2325
 -12.800  -1.3906   0.01343   0.00911  -0.0044  1.0000  0.0063  -11.6504   0.0000   0.2328
 -12.700  -1.3809   0.01329   0.00897  -0.0042  1.0000  0.0064  -11.4884   0.0000   0.2331
 -12.600  -1.3711   0.01316   0.00882  -0.0040  1.0000  0.0064  -11.3269   0.0000   0.2333
 -12.500  -1.3613   0.01302   0.00868  -0.0039  1.0000  0.0065  -11.1662   0.0000   0.2336
 -12.400  -1.3515   0.01289   0.00855  -0.0037  1.0000  0.0065  -11.0061   0.0000   0.2338
 -12.300  -1.3416   0.01276   0.00841  -0.0036  1.0000  0.0066  -10.8467   0.0000   0.2341
 -12.200  -1.3317   0.01263   0.00828  -0.0034  1.0000  0.0066  -10.6881   0.0000   0.2343
 -12.100  -1.3218   0.01251   0.00815  -0.0033  1.0000  0.0066  -10.5301   0.0000   0.2346
 -12.000  -1.3118   0.01239   0.00802  -0.0032  1.0000  0.0067  -10.3727   0.0000   0.2348
 -11.900  -1.3020   0.01224   0.00786  -0.0030  1.0000  0.0067  -10.2200   0.0000   0.2351
 -11.800  -1.2923   0.01207   0.00769  -0.0028  1.0000  0.0069  -10.0724   0.0000   0.2354
 -11.700  -1.2826   0.01191   0.00753  -0.0026  1.0000  0.0070  -9.9280   0.0000   0.2356
 -11.600  -1.2727   0.01177   0.00738  -0.0025  1.0000  0.0072  -9.7828   0.0000   0.2359
 -11.500  -1.2628   0.01163   0.00724  -0.0023  1.0000  0.0073  -9.6374   0.0000   0.2361
 -11.400  -1.2528   0.01150   0.00711  -0.0022  1.0000  0.0074  -9.4922   0.0000   0.2364
 -11.300  -1.2427   0.01138   0.00698  -0.0020  1.0000  0.0075  -9.3475   0.0000   0.2366
 -11.200  -1.2326   0.01126   0.00686  -0.0019  1.0000  0.0076  -9.2034   0.0000   0.2369
 -11.100  -1.2225   0.01114   0.00674  -0.0018  1.0000  0.0077  -9.0599   0.0000   0.2371
 -11.000  -1.2124   0.01103   0.00662  -0.0017  1.0000  0.0077  -8.9172   0.0000   0.2374
 -10.900  -1.2022   0.01092   0.00651  -0.0015  1.0000  0.0078  -8.7752   0.0000   0.2376
 -10.800  -1.1919   0.01081   0.00640  -0.0014  1.0000  0.0079  -8.6339   0.0000   0.2378
 -10.700  -1.1817   0.01071   0.00629  -0.0013  1.0000  0.0080  -8.4933   0.0000   0.2381
 -10.600  -1.1714   0.01061   0.00619  -0.0012  1.0000  0.0080  -8.3535   0.0000   0.2383
 -10.500  -1.1612   0.01051   0.00609  -0.0010  1.0000  0.0081  -8.2145   0.0000   0.2385
 -10.400  -1.1510   0.01040   0.00597  -0.0009  1.0000  0.0082  -8.0788   0.0000   0.2388
 -10.300  -1.1410   0.01027   0.00583  -0.0007  1.0000  0.0084  -7.9460   0.0000   0.2391
 -10.200  -1.1310   0.01014   0.00571  -0.0006  1.0000  0.0086  -7.8126   0.0000   0.2393
 -10.100  -1.1209   0.01003   0.00560  -0.0004  1.0000  0.0088  -7.6792   0.0000   0.2396
 -10.000  -1.1107   0.00992   0.00549  -0.0002  1.0000  0.0089  -7.5464   0.0000   0.2399
  -9.900  -1.1006   0.00982   0.00539  -0.0001  1.0000  0.0091  -7.4144   0.0000   0.2402
  -9.800  -1.0905   0.00973   0.00530   0.0001  1.0000  0.0092  -7.2834   0.0000   0.2404
  -9.700  -1.0804   0.00963   0.00521   0.0003  1.0000  0.0093  -7.1535   0.0000   0.2407
  -9.600  -1.0703   0.00955   0.00511   0.0005  1.0000  0.0094  -7.0248   0.0000   0.2410
  -9.500  -1.0603   0.00946   0.00503   0.0007  1.0000  0.0095  -6.8972   0.0000   0.2414
  -9.400  -1.0503   0.00938   0.00495   0.0009  1.0000  0.0096  -6.7709   0.0000   0.2417
  -9.300  -1.0405   0.00929   0.00485   0.0011  1.0000  0.0097  -6.6468   0.0000   0.2421
  -9.200  -1.0308   0.00918   0.00474   0.0014  1.0000  0.0100  -6.5262   0.0000   0.2425
  -9.100  -1.0212   0.00908   0.00464   0.0017  1.0000  0.0103  -6.4103   0.0000   0.2429
  -9.000  -1.0115   0.00898   0.00455   0.0020  1.0000  0.0105  -6.2954   0.0000   0.2433
  -8.900  -1.0019   0.00890   0.00446   0.0023  1.0000  0.0107  -6.1813   0.0000   0.2437
  -8.800  -0.9923   0.00881   0.00438   0.0026  1.0000  0.0109  -6.0682   0.0000   0.2442
  -8.700  -0.9828   0.00873   0.00430   0.0029  1.0000  0.0110  -5.9561   0.0000   0.2447
  -8.600  -0.9717   0.00865   0.00422   0.0029  0.9999  0.0112  -5.8371   0.0000   0.2448
  -8.500  -0.9594   0.00857   0.00415   0.0026  0.9997  0.0113  -5.7120   0.0000   0.2446
  -8.400  -0.9471   0.00849   0.00406   0.0023  0.9994  0.0115  -5.5884   0.0000   0.2445
  -8.300  -0.9348   0.00838   0.00396   0.0020  0.9992  0.0119  -5.4674   0.0000   0.2443
  -8.200  -0.9225   0.00829   0.00387   0.0017  0.9989  0.0123  -5.3463   0.0000   0.2441
  -8.100  -0.9102   0.00820   0.00379   0.0014  0.9986  0.0126  -5.2256   0.0000   0.2439
  -8.000  -0.8978   0.00811   0.00371   0.0011  0.9982  0.0129  -5.1058   0.0000   0.2437
  -7.900  -0.8853   0.00804   0.00364   0.0007  0.9979  0.0131  -4.9867   0.0000   0.2434
  -7.800  -0.8727   0.00797   0.00357   0.0004  0.9976  0.0133  -4.8683   0.0000   0.2432
  -7.700  -0.8602   0.00788   0.00348   0.0000  0.9973  0.0138  -4.7523   0.0000   0.2429
  -7.600  -0.8477   0.00778   0.00340  -0.0003  0.9971  0.0143  -4.6369   0.0000   0.2426
  -7.500  -0.8351   0.00770   0.00332  -0.0007  0.9968  0.0147  -4.5226   0.0000   0.2422
  -7.400  -0.8224   0.00762   0.00325  -0.0010  0.9965  0.0151  -4.4139   0.0000   0.2419
  -7.300  -0.8102   0.00755   0.00318  -0.0013  0.9959  0.0153  -4.3081   0.0000   0.2417
  -7.200  -0.7984   0.00749   0.00312  -0.0014  0.9948  0.0156  -4.2053   0.0000   0.2415
  -7.100  -0.7866   0.00740   0.00304  -0.0016  0.9936  0.0163  -4.1042   0.0000   0.2414
  -7.000  -0.7746   0.00732   0.00297  -0.0018  0.9924  0.0170  -4.0026   0.0000   0.2412
  -6.900  -0.7624   0.00725   0.00291  -0.0021  0.9913  0.0175  -3.9008   0.0000   0.2409
  -6.800  -0.7501   0.00719   0.00285  -0.0023  0.9903  0.0178  -3.7995   0.0000   0.2406
  -6.700  -0.7389   0.00712   0.00278  -0.0023  0.9883  0.0184  -3.7043   0.0000   0.2406
  -6.600  -0.7277   0.00705   0.00272  -0.0024  0.9861  0.0192  -3.6101   0.0000   0.2406
  -6.500  -0.7164   0.00698   0.00265  -0.0024  0.9840  0.0199  -3.5161   0.0000   0.2406
  -6.400  -0.7053   0.00692   0.00260  -0.0024  0.9817  0.0204  -3.4239   0.0000   0.2407
  -6.300  -0.6946   0.00687   0.00255  -0.0023  0.9786  0.0209  -3.3356   0.0000   0.2409
  -6.200  -0.6841   0.00680   0.00248  -0.0021  0.9755  0.0219  -3.2523   0.0000   0.2412
  -6.100  -0.6735   0.00674   0.00243  -0.0020  0.9723  0.0228  -3.1691   0.0000   0.2414
  -6.000  -0.6629   0.00669   0.00237  -0.0018  0.9685  0.0235  -3.0869   0.0000   0.2417
  -5.900  -0.6524   0.00663   0.00232  -0.0016  0.9649  0.0244  -3.0058   0.0000   0.2420
  -5.800  -0.6418   0.00657   0.00226  -0.0015  0.9607  0.0256  -2.9252   0.0000   0.2422
  -5.700  -0.6314   0.00652   0.00221  -0.0013  0.9565  0.0266  -2.8456   0.0000   0.2426
  -5.600  -0.6205   0.00648   0.00216  -0.0012  0.9520  0.0272  -2.7654   0.0000   0.2427
  -5.500  -0.6100   0.00642   0.00210  -0.0011  0.9472  0.0288  -2.6876   0.0000   0.2431
  -5.400  -0.5992   0.00637   0.00205  -0.0010  0.9422  0.0301  -2.6095   0.0000   0.2432
  -5.300  -0.5885   0.00633   0.00200  -0.0008  0.9370  0.0311  -2.5363   0.0000   0.2435
  -5.200  -0.5776   0.00627   0.00195  -0.0008  0.9313  0.0331  -2.4637   0.0000   0.2437
  -5.100  -0.5668   0.00623   0.00189  -0.0007  0.9256  0.0347  -2.3918   0.0000   0.2439
  -5.000  -0.5559   0.00619   0.00185  -0.0006  0.9193  0.0358  -2.3202   0.0000   0.2441
  -4.900  -0.5450   0.00614   0.00180  -0.0005  0.9131  0.0382  -2.2497   0.0000   0.2443
  -4.800  -0.5341   0.00610   0.00175  -0.0004  0.9065  0.0400  -2.1797   0.0000   0.2445
  -4.700  -0.5232   0.00606   0.00170  -0.0004  0.8994  0.0422  -2.1107   0.0000   0.2447
  -4.600  -0.5122   0.00602   0.00165  -0.0003  0.8922  0.0449  -2.0459   0.0000   0.2448
  -4.500  -0.5012   0.00599   0.00161  -0.0003  0.8849  0.0468  -1.9813   0.0000   0.2450
  -4.400  -0.4903   0.00594   0.00156  -0.0002  0.8771  0.0501  -1.9179   0.0000   0.2451
  -4.300  -0.4792   0.00591   0.00152  -0.0001  0.8689  0.0523  -1.8546   0.0000   0.2453
  -4.200  -0.4682   0.00586   0.00148  -0.0001  0.8606  0.0563  -1.7923   0.0000   0.2454
  -4.100  -0.4571   0.00583   0.00144  -0.0001  0.8521  0.0591  -1.7314   0.0000   0.2456
  -4.000  -0.4461   0.00579   0.00139  -0.0000  0.8434  0.0636  -1.6738   0.0000   0.2457
  -3.900  -0.4350   0.00577   0.00136  -0.0000  0.8344  0.0665  -1.6164   0.0000   0.2458
  -3.800  -0.4240   0.00572   0.00131   0.0000  0.8253  0.0719  -1.5600   0.0000   0.2459
  -3.700  -0.4129   0.00569   0.00127   0.0001  0.8159  0.0763  -1.5038   0.0000   0.2461
  -3.600  -0.4018   0.00565   0.00123   0.0001  0.8064  0.0814  -1.4513   0.0000   0.2462
  -3.500  -0.3908   0.00562   0.00120   0.0001  0.7967  0.0869  -1.3994   0.0000   0.2463
  -3.400  -0.3796   0.00559   0.00116   0.0001  0.7869  0.0923  -1.3480   0.0000   0.2464
  -3.300  -0.3686   0.00555   0.00113   0.0001  0.7769  0.0986  -1.2972   0.0000   0.2465
  -3.200  -0.3575   0.00551   0.00109   0.0002  0.7668  0.1054  -1.2496   0.0000   0.2466
  -3.100  -0.3464   0.00548   0.00105   0.0002  0.7567  0.1123  -1.2026   0.0000   0.2467
  -3.000  -0.3352   0.00545   0.00102   0.0002  0.7464  0.1194  -1.1561   0.0000   0.2468
  -2.900  -0.3241   0.00542   0.00099   0.0002  0.7361  0.1263  -1.1117   0.0000   0.2469
  -2.800  -0.3130   0.00538   0.00096   0.0002  0.7256  0.1345  -1.0687   0.0000   0.2470
  -2.700  -0.3019   0.00535   0.00093   0.0002  0.7152  0.1432  -1.0261   0.0000   0.2471
  -2.600  -0.2908   0.00532   0.00090   0.0002  0.7047  0.1519  -0.9859   0.0000   0.2472
  -2.500  -0.2796   0.00528   0.00087   0.0002  0.6942  0.1610  -0.9465   0.0000   0.2473
  -2.400  -0.2685   0.00525   0.00085   0.0002  0.6835  0.1701  -0.9080   0.0000   0.2473
  -2.300  -0.2574   0.00522   0.00082   0.0002  0.6730  0.1796  -0.8714   0.0000   0.2474
  -2.200  -0.2462   0.00519   0.00080   0.0002  0.6624  0.1892  -0.8353   0.0000   0.2475
  -2.100  -0.2351   0.00517   0.00077   0.0002  0.6518  0.1991  -0.8014   0.0000   0.2476
  -2.000  -0.2239   0.00514   0.00075   0.0002  0.6412  0.2091  -0.7678   0.0000   0.2476
  -1.900  -0.2128   0.00511   0.00073   0.0002  0.6307  0.2191  -0.7364   0.0000   0.2477
  -1.800  -0.2016   0.00509   0.00071   0.0002  0.6201  0.2296  -0.7055   0.0000   0.2478
  -1.700  -0.1904   0.00506   0.00069   0.0002  0.6096  0.2401  -0.6764   0.0000   0.2478
  -1.600  -0.1793   0.00503   0.00067   0.0002  0.5990  0.2511  -0.6482   0.0000   0.2479
  -1.500  -0.1681   0.00501   0.00065   0.0002  0.5883  0.2618  -0.6212   0.0000   0.2479
  -1.400  -0.1569   0.00499   0.00064   0.0002  0.5777  0.2729  -0.5957   0.0000   0.2480
  -1.300  -0.1457   0.00497   0.00062   0.0002  0.5670  0.2836  -0.5710   0.0000   0.2480
  -1.200  -0.1345   0.00495   0.00061   0.0002  0.5563  0.2947  -0.5477   0.0000   0.2481
  -1.100  -0.1233   0.00494   0.00060   0.0002  0.5456  0.3053  -0.5256   0.0000   0.2481
  -1.000  -0.1121   0.00492   0.00059   0.0001  0.5349  0.3164  -0.5044   0.0000   0.2481
  -0.900  -0.1009   0.00491   0.00058   0.0001  0.5242  0.3273  -0.4843   0.0000   0.2482
  -0.800  -0.0897   0.00489   0.00057   0.0001  0.5134  0.3387  -0.4654   0.0000   0.2482
  -0.700  -0.0785   0.00488   0.00056   0.0001  0.5027  0.3497  -0.4475   0.0000   0.2482
  -0.600  -0.0673   0.00487   0.00055   0.0001  0.4920  0.3610  -0.4304   0.0000   0.2483
  -0.500  -0.0561   0.00487   0.00055   0.0001  0.4814  0.3719  -0.4141   0.0000   0.2483
  -0.400  -0.0449   0.00486   0.00054   0.0001  0.4705  0.3830  -0.3987   0.0000   0.2483
  -0.300  -0.0336   0.00485   0.00054   0.0000  0.4598  0.3938  -0.3841   0.0000   0.2482
  -0.200  -0.0224   0.00485   0.00054   0.0000  0.4488  0.4048  -0.3701   0.0000   0.2482
  -0.100  -0.0112   0.00485   0.00054   0.0000  0.4379  0.4159  -0.3568   0.0000   0.2482
   0.000  -0.0000   0.00484   0.00054   0.0000  0.4268  0.4268  -0.3440   0.0000   0.3675
   0.100   0.0112   0.00485   0.00054  -0.0000  0.4159  0.4379  -0.3568   0.0000   0.2482
   0.200   0.0224   0.00485   0.00054  -0.0000  0.4048  0.4488  -0.3701   0.0000   0.2482
   0.300   0.0336   0.00485   0.00054  -0.0000  0.3938  0.4598  -0.3841   0.0000   0.2482
   0.400   0.0449   0.00486   0.00054  -0.0001  0.3830  0.4705  -0.3987   0.0000   0.2483
   0.500   0.0561   0.00487   0.00055  -0.0001  0.3719  0.4814  -0.4141   0.0000   0.2483
   0.600   0.0673   0.00487   0.00055  -0.0001  0.3609  0.4920  -0.4304   0.0000   0.2483
   0.700   0.0785   0.00488   0.00056  -0.0001  0.3497  0.5028  -0.4475   0.0000   0.2482
   0.800   0.0897   0.00489   0.00057  -0.0001  0.3387  0.5134  -0.4654   0.0000   0.2482
   0.900   0.1009   0.00491   0.00058  -0.0001  0.3273  0.5242  -0.4843   0.0000   0.2482
   1.000   0.1121   0.00492   0.00059  -0.0002  0.3164  0.5349  -0.5044   0.0000   0.2481
   1.100   0.1233   0.00494   0.00060  -0.0002  0.3053  0.5456  -0.5256   0.0000   0.2481
   1.200   0.1345   0.00495   0.00061  -0.0002  0.2947  0.5563  -0.5477   0.0000   0.2481
   1.300   0.1457   0.00497   0.00062  -0.0002  0.2836  0.5670  -0.5710   0.0000   0.2480
   1.400   0.1569   0.00499   0.00064  -0.0002  0.2729  0.5777  -0.5957   0.0000   0.2480
   1.500   0.1681   0.00501   0.00065  -0.0002  0.2618  0.5883  -0.6212   0.0000   0.2479
   1.600   0.1793   0.00503   0.00067  -0.0002  0.2511  0.5990  -0.6482   0.0000   0.2479
   1.700   0.1904   0.00506   0.00069  -0.0002  0.2401  0.6096  -0.6764   0.0000   0.2478
   1.800   0.2016   0.00509   0.00071  -0.0002  0.2296  0.6201  -0.7055   0.0000   0.2478
   1.900   0.2128   0.00511   0.00073  -0.0002  0.2191  0.6307  -0.7364   0.0000   0.2477
   2.000   0.2239   0.00514   0.00075  -0.0002  0.2091  0.6412  -0.7678   0.0000   0.2476
   2.100   0.2351   0.00517   0.00077  -0.0002  0.1991  0.6518  -0.8014   0.0000   0.2476
   2.200   0.2462   0.00519   0.00080  -0.0002  0.1892  0.6624  -0.8353   0.0000   0.2475
   2.300   0.2574   0.00522   0.00082  -0.0002  0.1796  0.6730  -0.8714   0.0000   0.2474
   2.400   0.2685   0.00525   0.00085  -0.0002  0.1701  0.6836  -0.9080   0.0000   0.2473
   2.500   0.2796   0.00528   0.00087  -0.0002  0.1610  0.6942  -0.9465   0.0000   0.2473
   2.600   0.2908   0.00532   0.00090  -0.0002  0.1519  0.7047  -0.9860   0.0000   0.2472
   2.700   0.3019   0.00535   0.00093  -0.0002  0.1432  0.7152  -1.0261   0.0000   0.2471
   2.800   0.3130   0.00538   0.00096  -0.0002  0.1345  0.7256  -1.0687   0.0000   0.2470
   2.900   0.3241   0.00542   0.00099  -0.0002  0.1263  0.7361  -1.1117   0.0000   0.2469
   3.000   0.3353   0.00545   0.00102  -0.0002  0.1194  0.7464  -1.1561   0.0000   0.2468
   3.100   0.3464   0.00548   0.00106  -0.0002  0.1123  0.7567  -1.2026   0.0000   0.2467
   3.200   0.3575   0.00551   0.00109  -0.0002  0.1054  0.7669  -1.2497   0.0000   0.2466
   3.300   0.3686   0.00555   0.00113  -0.0001  0.0986  0.7769  -1.2973   0.0000   0.2465
   3.400   0.3797   0.00559   0.00116  -0.0001  0.0923  0.7869  -1.3480   0.0000   0.2464
   3.500   0.3908   0.00562   0.00120  -0.0001  0.0869  0.7967  -1.3995   0.0000   0.2463
   3.600   0.4019   0.00565   0.00123  -0.0001  0.0814  0.8064  -1.4513   0.0000   0.2462
   3.700   0.4129   0.00569   0.00127  -0.0001  0.0763  0.8159  -1.5038   0.0000   0.2461
   3.800   0.4240   0.00572   0.00131  -0.0000  0.0719  0.8253  -1.5600   0.0000   0.2460
   3.900   0.4350   0.00577   0.00136   0.0000  0.0665  0.8344  -1.6164   0.0000   0.2458
   4.000   0.4462   0.00579   0.00139   0.0000  0.0636  0.8434  -1.6739   0.0000   0.2457
   4.100   0.4572   0.00583   0.00144   0.0001  0.0591  0.8521  -1.7315   0.0000   0.2456
   4.200   0.4683   0.00586   0.00148   0.0001  0.0563  0.8606  -1.7924   0.0000   0.2454
   4.300   0.4792   0.00591   0.00152   0.0001  0.0523  0.8689  -1.8546   0.0000   0.2453
   4.400   0.4903   0.00594   0.00156   0.0002  0.0501  0.8771  -1.9179   0.0000   0.2452
   4.500   0.5012   0.00599   0.00161   0.0002  0.0468  0.8849  -1.9814   0.0000   0.2450
   4.600   0.5123   0.00602   0.00165   0.0003  0.0449  0.8922  -2.0459   0.0000   0.2448
   4.700   0.5232   0.00606   0.00170   0.0004  0.0422  0.8994  -2.1108   0.0000   0.2447
   4.800   0.5342   0.00610   0.00175   0.0004  0.0400  0.9065  -2.1797   0.0000   0.2445
   4.900   0.5451   0.00614   0.00180   0.0005  0.0382  0.9131  -2.2498   0.0000   0.2443
   5.000   0.5559   0.00619   0.00185   0.0006  0.0358  0.9193  -2.3203   0.0000   0.2441
   5.100   0.5669   0.00623   0.00189   0.0007  0.0347  0.9256  -2.3919   0.0000   0.2439
   5.200   0.5777   0.00627   0.00195   0.0008  0.0331  0.9313  -2.4638   0.0000   0.2437
   5.300   0.5885   0.00633   0.00200   0.0008  0.0311  0.9370  -2.5364   0.0000   0.2435
   5.400   0.5992   0.00637   0.00205   0.0010  0.0301  0.9421  -2.6096   0.0000   0.2433
   5.500   0.6100   0.00642   0.00210   0.0010  0.0288  0.9472  -2.6877   0.0000   0.2431
   5.600   0.6206   0.00648   0.00216   0.0012  0.0272  0.9520  -2.7655   0.0000   0.2428
   5.700   0.6314   0.00652   0.00221   0.0013  0.0266  0.9565  -2.8457   0.0000   0.2426
   5.800   0.6419   0.00657   0.00226   0.0015  0.0256  0.9607  -2.9253   0.0000   0.2422
   5.900   0.6525   0.00663   0.00232   0.0016  0.0244  0.9649  -3.0059   0.0000   0.2420
   6.000   0.6630   0.00669   0.00237   0.0018  0.0235  0.9685  -3.0870   0.0000   0.2417
   6.100   0.6735   0.00674   0.00243   0.0020  0.0228  0.9723  -3.1693   0.0000   0.2414
   6.200   0.6841   0.00680   0.00248   0.0021  0.0219  0.9755  -3.2525   0.0000   0.2412
   6.300   0.6946   0.00687   0.00255   0.0022  0.0209  0.9786  -3.3358   0.0000   0.2409
   6.400   0.7054   0.00692   0.00260   0.0024  0.0204  0.9816  -3.4241   0.0000   0.2407
   6.500   0.7164   0.00698   0.00265   0.0024  0.0199  0.9840  -3.5162   0.0000   0.2406
   6.600   0.7277   0.00705   0.00272   0.0024  0.0192  0.9861  -3.6102   0.0000   0.2407
   6.700   0.7389   0.00712   0.00278   0.0023  0.0184  0.9883  -3.7044   0.0000   0.2406
   6.800   0.7501   0.00719   0.00285   0.0023  0.0178  0.9903  -3.7996   0.0000   0.2406
   6.900   0.7624   0.00725   0.00291   0.0021  0.0175  0.9913  -3.9009   0.0000   0.2409
   7.000   0.7747   0.00732   0.00297   0.0018  0.0170  0.9924  -4.0027   0.0000   0.2412
   7.100   0.7866   0.00740   0.00304   0.0016  0.0163  0.9936  -4.1044   0.0000   0.2414
   7.200   0.7984   0.00749   0.00312   0.0014  0.0156  0.9948  -4.2054   0.0000   0.2415
   7.300   0.8102   0.00755   0.00318   0.0013  0.0153  0.9959  -4.3083   0.0000   0.2417
   7.400   0.8224   0.00762   0.00325   0.0010  0.0151  0.9965  -4.4141   0.0000   0.2419
   7.500   0.8351   0.00770   0.00332   0.0006  0.0147  0.9968  -4.5228   0.0000   0.2423
   7.600   0.8477   0.00778   0.00340   0.0003  0.0143  0.9971  -4.6371   0.0000   0.2426
   7.700   0.8603   0.00788   0.00348  -0.0001  0.0138  0.9974  -4.7525   0.0000   0.2429
   7.800   0.8728   0.00797   0.00357  -0.0004  0.0133  0.9976  -4.8685   0.0000   0.2432
   7.900   0.8853   0.00804   0.00364  -0.0007  0.0131  0.9979  -4.9869   0.0000   0.2434
   8.000   0.8978   0.00811   0.00371  -0.0011  0.0129  0.9983  -5.1060   0.0000   0.2437
   8.100   0.9102   0.00820   0.00379  -0.0014  0.0126  0.9986  -5.2258   0.0000   0.2439
   8.200   0.9226   0.00829   0.00387  -0.0017  0.0123  0.9989  -5.3465   0.0000   0.2441
   8.300   0.9349   0.00838   0.00396  -0.0020  0.0119  0.9992  -5.4676   0.0000   0.2443
   8.400   0.9471   0.00849   0.00406  -0.0023  0.0115  0.9995  -5.5886   0.0000   0.2445
   8.500   0.9594   0.00857   0.00414  -0.0026  0.0113  0.9997  -5.7122   0.0000   0.2446
   8.600   0.9718   0.00865   0.00422  -0.0029  0.0112  0.9999  -5.8374   0.0000   0.2448
   8.700   0.9827   0.00873   0.00430  -0.0029  0.0110  1.0000  -5.9558   0.0000   0.2446
   8.800   0.9922   0.00881   0.00438  -0.0025  0.0109  1.0000  -6.0678   0.0000   0.2442
   8.900   1.0018   0.00890   0.00446  -0.0022  0.0107  1.0000  -6.1810   0.0000   0.2437
   9.000   1.0115   0.00898   0.00455  -0.0019  0.0105  1.0000  -6.2951   0.0000   0.2433
   9.100   1.0211   0.00908   0.00464  -0.0017  0.0103  1.0000  -6.4101   0.0000   0.2429
   9.200   1.0308   0.00918   0.00474  -0.0014  0.0100  1.0000  -6.5260   0.0000   0.2425
   9.300   1.0404   0.00929   0.00485  -0.0011  0.0097  1.0000  -6.6466   0.0000   0.2421
   9.400   1.0503   0.00938   0.00494  -0.0009  0.0096  1.0000  -6.7707   0.0000   0.2417
   9.500   1.0603   0.00946   0.00503  -0.0006  0.0095  1.0000  -6.8971   0.0000   0.2414
   9.600   1.0703   0.00955   0.00511  -0.0004  0.0094  1.0000  -7.0247   0.0000   0.2410
   9.700   1.0804   0.00963   0.00521  -0.0003  0.0093  1.0000  -7.1535   0.0000   0.2407
   9.800   1.0905   0.00973   0.00530  -0.0001  0.0092  1.0000  -7.2834   0.0000   0.2404
   9.900   1.1006   0.00982   0.00539   0.0001  0.0091  1.0000  -7.4144   0.0000   0.2402
  10.000   1.1108   0.00992   0.00549   0.0002  0.0089  1.0000  -7.5465   0.0000   0.2399
  10.100   1.1209   0.01003   0.00560   0.0004  0.0088  1.0000  -7.6794   0.0000   0.2396
  10.200   1.1310   0.01014   0.00571   0.0006  0.0086  1.0000  -7.8128   0.0000   0.2393
  10.300   1.1411   0.01027   0.00583   0.0007  0.0084  1.0000  -7.9461   0.0000   0.2391
  10.400   1.1511   0.01040   0.00597   0.0009  0.0082  1.0000  -8.0790   0.0000   0.2388
  10.500   1.1612   0.01051   0.00609   0.0010  0.0081  1.0000  -8.2148   0.0000   0.2385
  10.600   1.1715   0.01061   0.00619   0.0012  0.0080  1.0000  -8.3538   0.0000   0.2383
  10.700   1.1818   0.01071   0.00629   0.0013  0.0080  1.0000  -8.4936   0.0000   0.2381
  10.800   1.1920   0.01081   0.00640   0.0014  0.0079  1.0000  -8.6342   0.0000   0.2378
  10.900   1.2022   0.01092   0.00651   0.0015  0.0078  1.0000  -8.7755   0.0000   0.2376
  11.000   1.2124   0.01103   0.00662   0.0016  0.0077  1.0000  -8.9176   0.0000   0.2374
  11.100   1.2226   0.01114   0.00674   0.0018  0.0077  1.0000  -9.0603   0.0000   0.2371
  11.200   1.2327   0.01126   0.00686   0.0019  0.0076  1.0000  -9.2038   0.0000   0.2369
  11.300   1.2428   0.01138   0.00698   0.0020  0.0075  1.0000  -9.3480   0.0000   0.2366
  11.400   1.2528   0.01150   0.00711   0.0022  0.0074  1.0000  -9.4927   0.0000   0.2364
  11.500   1.2628   0.01163   0.00724   0.0023  0.0073  1.0000  -9.6379   0.0000   0.2362
  11.600   1.2728   0.01177   0.00738   0.0025  0.0072  1.0000  -9.7833   0.0000   0.2359
  11.700   1.2827   0.01191   0.00753   0.0026  0.0070  1.0000  -9.9285   0.0000   0.2356
  11.800   1.2924   0.01207   0.00769   0.0028  0.0069  1.0000  -10.0730   0.0000   0.2354
  11.900   1.3021   0.01224   0.00786   0.0030  0.0067  1.0000  -10.2206   0.0000   0.2351
  12.000   1.3119   0.01239   0.00802   0.0032  0.0067  1.0000  -10.3734   0.0000   0.2348
  12.100   1.3219   0.01251   0.00815   0.0033  0.0066  1.0000  -10.5308   0.0000   0.2346
  12.200   1.3318   0.01263   0.00828   0.0034  0.0066  1.0000  -10.6888   0.0000   0.2343
  12.300   1.3417   0.01276   0.00841   0.0036  0.0066  1.0000  -10.8475   0.0000   0.2341
  12.400   1.3516   0.01289   0.00855   0.0037  0.0065  1.0000  -11.0069   0.0000   0.2338
  12.500   1.3614   0.01302   0.00868   0.0039  0.0065  1.0000  -11.1670   0.0000   0.2336
  12.600   1.3712   0.01316   0.00882   0.0040  0.0064  1.0000  -11.3278   0.0000   0.2333
  12.700   1.3810   0.01329   0.00897   0.0042  0.0064  1.0000  -11.4892   0.0000   0.2331
  12.800   1.3907   0.01343   0.00911   0.0043  0.0063  1.0000  -11.6513   0.0000   0.2328
  12.900   1.4003   0.01358   0.00927   0.0045  0.0063  1.0000  -11.8138   0.0000   0.2325
  13.000   1.4099   0.01373   0.00942   0.0047  0.0062  1.0000  -11.9768   0.0000   0.2323
  13.100   1.4194   0.01388   0.00958   0.0049  0.0061  1.0000  -12.1401   0.0000   0.2320
  13.200   1.4289   0.01404   0.00975   0.0051  0.0061  1.0000  -12.3037   0.0000   0.2317
  13.300   1.4382   0.01421   0.00992   0.0053  0.0060  1.0000  -12.4674   0.0000   0.2314
  13.400   1.4475   0.01438   0.01009   0.0055  0.0059  1.0000  -12.6313   0.0000   0.2311
  13.500   1.4568   0.01456   0.01028   0.0057  0.0059  1.0000  -12.7950   0.0000   0.2308
  13.600   1.4659   0.01474   0.01047   0.0059  0.0058  1.0000  -12.9582   0.0000   0.2305
  13.700   1.4748   0.01494   0.01068   0.0062  0.0057  1.0000  -13.1205   0.0000   0.2302
  13.800   1.4837   0.01515   0.01090   0.0065  0.0056  1.0000  -13.2816   0.0000   0.2299
  13.900   1.4923   0.01537   0.01114   0.0067  0.0055  1.0000  -13.4414   0.0000   0.2295
  14.000   1.5009   0.01561   0.01139   0.0070  0.0054  1.0000  -13.6002   0.0000   0.2292
  14.100   1.5100   0.01577   0.01156   0.0073  0.0054  1.0000  -13.7696   0.0000   0.2289
  14.200   1.5190   0.01594   0.01174   0.0075  0.0054  1.0000  -13.9392   0.0000   0.2286
  14.300   1.5280   0.01611   0.01192   0.0077  0.0054  1.0000  -14.1091   0.0000   0.2283
  14.400   1.5369   0.01628   0.01211   0.0080  0.0054  1.0000  -14.2792   0.0000   0.2280
  14.500   1.5458   0.01646   0.01229   0.0082  0.0053  1.0000  -14.4494   0.0000   0.2276
  14.600   1.5545   0.01665   0.01249   0.0085  0.0053  1.0000  -14.6197   0.0000   0.2273
  14.700   1.5632   0.01683   0.01268   0.0088  0.0053  1.0000  -14.7900   0.0000   0.2270
  14.800   1.5718   0.01702   0.01289   0.0091  0.0053  1.0000  -14.9604   0.0000   0.2267
  14.900   1.5803   0.01722   0.01309   0.0093  0.0052  1.0000  -15.1307   0.0000   0.2263
  15.000   1.5887   0.01741   0.01330   0.0096  0.0052  1.0000  -15.3010   0.0000   0.2260
  15.100   1.5970   0.01762   0.01352   0.0100  0.0052  1.0000  -15.4712   0.0000   0.2256
  15.200   1.6052   0.01782   0.01373   0.0103  0.0051  1.0000  -15.6413   0.0000   0.2253
  15.300   1.6133   0.01804   0.01396   0.0106  0.0051  1.0000  -15.8112   0.0000   0.2249
  15.400   1.6213   0.01825   0.01419   0.0110  0.0051  1.0000  -15.9808   0.0000   0.2245
  15.500   1.6291   0.01847   0.01442   0.0113  0.0050  1.0000  -16.1499   0.0000   0.2242
  15.600   1.6369   0.01870   0.01466   0.0117  0.0050  1.0000  -16.3184   0.0000   0.2238
  15.700   1.6445   0.01893   0.01490   0.0121  0.0050  1.0000  -16.4863   0.0000   0.2234
  15.800   1.6519   0.01917   0.01516   0.0125  0.0049  1.0000  -16.6534   0.0000   0.2230
  15.900   1.6592   0.01942   0.01542   0.0129  0.0049  1.0000  -16.8197   0.0000   0.2225
  16.000   1.6663   0.01967   0.01568   0.0133  0.0049  1.0000  -16.9849   0.0000   0.2221
  16.100   1.6732   0.01993   0.01596   0.0138  0.0048  1.0000  -17.1488   0.0000   0.2217
  16.200   1.6799   0.02020   0.01624   0.0143  0.0048  1.0000  -17.3114   0.0000   0.2212
  16.300   1.6864   0.02048   0.01653   0.0148  0.0048  1.0000  -17.4722   0.0000   0.2208
  16.400   1.6926   0.02077   0.01684   0.0153  0.0047  1.0000  -17.6307   0.0000   0.2203
  16.500   1.6985   0.02106   0.01715   0.0159  0.0047  1.0000  -17.7863   0.0000   0.2198
  16.600   1.7039   0.02137   0.01747   0.0166  0.0046  1.0000  -17.9385   0.0000   0.2192
  16.700   1.7080   0.02168   0.01781   0.0174  0.0046  1.0000  -18.0820   0.0000   0.2185
  16.800   1.7114   0.02201   0.01815   0.0184  0.0046  1.0000  -18.2181   0.0000   0.2178
  16.900   1.7144   0.02236   0.01853   0.0194  0.0045  1.0000  -18.3500   0.0000   0.2170
  17.000   1.7171   0.02274   0.01893   0.0204  0.0045  1.0000  -18.4786   0.0000   0.2163
  17.100   1.7196   0.02315   0.01936   0.0214  0.0044  1.0000  -18.6041   0.0000   0.2155
  17.200   1.7217   0.02358   0.01982   0.0223  0.0044  1.0000  -18.7259   0.0000   0.2148
  17.300   1.7236   0.02405   0.02032   0.0232  0.0044  1.0000  -18.8436   0.0000   0.2141
  17.400   1.7250   0.02457   0.02086   0.0241  0.0043  1.0000  -18.9568   0.0000   0.2134
  17.500   1.7278   0.02501   0.02133   0.0248  0.0043  1.0000  -19.0872   0.0000   0.2128
  17.600   1.7308   0.02544   0.02178   0.0254  0.0043  1.0000  -19.2218   0.0000   0.2122
  17.700   1.7337   0.02590   0.02226   0.0261  0.0043  1.0000  -19.3551   0.0000   0.2117
  17.800   1.7364   0.02639   0.02277   0.0266  0.0043  1.0000  -19.4863   0.0000   0.2112
  17.900   1.7390   0.02690   0.02331   0.0272  0.0043  1.0000  -19.6158   0.0000   0.2107
  18.000   1.7414   0.02744   0.02387   0.0276  0.0043  1.0000  -19.7432   0.0000   0.2102
  18.100   1.7435   0.02802   0.02447   0.0281  0.0043  1.0000  -19.8680   0.0000   0.2097
  18.200   1.7456   0.02863   0.02511   0.0285  0.0043  1.0000  -19.9906   0.0000   0.2093
  18.300   1.7474   0.02929   0.02579   0.0289  0.0042  1.0000  -20.1102   0.0000   0.2089
  18.400   1.7489   0.02998   0.02650   0.0292  0.0042  1.0000  -20.2269   0.0000   0.2085
  18.500   1.7503   0.03072   0.02727   0.0294  0.0042  1.0000  -20.3408   0.0000   0.2081
  18.600   1.7514   0.03151   0.02808   0.0296  0.0042  1.0000  -20.4508   0.0000   0.2078
  18.700   1.7522   0.03235   0.02895   0.0297  0.0042  1.0000  -20.5570   0.0000   0.2075
  18.800   1.7528   0.03324   0.02988   0.0298  0.0042  1.0000  -20.6592   0.0000   0.2072
  18.900   1.7530   0.03420   0.03087   0.0298  0.0042  1.0000  -20.7575   0.0000   0.2070
  19.000   1.7529   0.03523   0.03192   0.0297  0.0042  1.0000  -20.8497   0.0000   0.2068
  19.100   1.7525   0.03633   0.03305   0.0295  0.0042  1.0000  -20.9371   0.0000   0.2066
  19.200   1.7517   0.03751   0.03426   0.0293  0.0042  1.0000  -21.0189   0.0000   0.2065
  19.300   1.7504   0.03877   0.03556   0.0289  0.0042  1.0000  -21.0941   0.0000   0.2064
  19.400   1.7487   0.04012   0.03695   0.0285  0.0041  1.0000  -21.1613   0.0000   0.2063
  19.500   1.7464   0.04158   0.03844   0.0280  0.0041  1.0000  -21.2211   0.0000   0.2063
  19.600   1.7437   0.04314   0.04004   0.0274  0.0041  1.0000  -21.2728   0.0000   0.2064
  19.700   1.7403   0.04482   0.04175   0.0267  0.0041  1.0000  -21.3146   0.0000   0.2065
  19.800   1.7362   0.04663   0.04360   0.0259  0.0041  1.0000  -21.3446   0.0000   0.2067
  19.900   1.7314   0.04858   0.04559   0.0249  0.0041  1.0000  -21.3631   0.0000   0.2069
  20.000   1.7257   0.05069   0.04774   0.0239  0.0041  1.0000  -21.3682   0.0000   0.2072
  20.100   1.7191   0.05297   0.05007   0.0227  0.0041  1.0000  -21.3572   0.0000   0.2075
  20.200   1.7112   0.05545   0.05261   0.0214  0.0041  1.0000  -21.3272   0.0000   0.2079
  20.300   1.7022   0.05817   0.05537   0.0199  0.0041  1.0000  -21.2773   0.0000   0.2084
  20.400   1.6917   0.06112   0.05838   0.0183  0.0041  1.0000  -21.2039   0.0000   0.2090
  20.500   1.6794   0.06438   0.06169   0.0166  0.0041  1.0000  -21.1012   0.0000   0.2097
  20.600   1.6651   0.06800   0.06537   0.0146  0.0041  1.0000  -20.9651   0.0000   0.2105
  20.700   1.6487   0.07201   0.06944   0.0123  0.0041  1.0000  -20.7923   0.0000   0.2115
  20.800   1.6292   0.07655   0.07406   0.0098  0.0041  1.0000  -20.5680   0.0000   0.2127
  20.900   1.6060   0.08178   0.07936   0.0069  0.0041  1.0000  -20.2808   0.0000   0.2142
  21.000   1.5780   0.08785   0.08553   0.0035  0.0041  1.0000  -19.9097   0.0000   0.2160
  21.100   1.5439   0.09510   0.09288  -0.0006  0.0041  1.0000  -19.4289   0.0000   0.2183
  21.200   1.4980   0.10455   0.10245  -0.0060  0.0042  1.0000  -18.7370   0.0000   0.2217
  21.300   1.4167   0.12082   0.11893  -0.0156  0.0042  1.0000  -17.3968   0.0000   0.2286
  21.400   1.2686   0.15190   0.15036  -0.0355  0.0044  1.0000  -14.6373   0.0000   0.2460
  21.500   1.2321   0.16156   0.16013  -0.0421  0.0045  1.0000  -13.8979   0.0000   0.2523
  21.600   1.1932   0.17223   0.17090  -0.0495  0.0045  1.0000  -13.0467   0.0000   0.2597
  21.700   1.1582   0.18263   0.18140  -0.0569  0.0046  1.0000  -12.2056   0.0000   0.2676
  21.800   1.1380   0.18968   0.18851  -0.0619  0.0046  1.0000  -11.6815   0.0000   0.2730
  21.900   1.1224   0.19575   0.19463  -0.0662  0.0046  1.0000  -11.2451   0.0000   0.2776
  22.000   1.1157   0.19945   0.19836  -0.0689  0.0046  1.0000  -11.0399   0.0000   0.2803
  22.100   1.1052   0.20440   0.20334  -0.0724  0.0045  1.0000  -10.7084   0.0000   0.2841
  22.200   1.0979   0.20850   0.20746  -0.0754  0.0045  1.0000  -10.4539   0.0000   0.2873
  22.300   1.0942   0.21161   0.21059  -0.0776  0.0044  1.0000  -10.2996   0.0000   0.2895
  22.400   1.0923   0.21417   0.21316  -0.0795  0.0044  1.0000  -10.2014   0.0000   0.2912
  22.500   1.0898   0.21701   0.21602  -0.0816  0.0043  1.0000  -10.0731   0.0000   0.2932
  22.600   1.0871   0.21983   0.21885  -0.0837  0.0043  1.0000  -9.9369   0.0000   0.2952
  22.700   1.0871   0.22181   0.22085  -0.0851  0.0043  1.0000  -9.8941   0.0000   0.2964
  22.800   1.0872   0.22378   0.22282  -0.0866  0.0043  1.0000  -9.8510   0.0000   0.2976
  22.900   1.0869   0.22591   0.22496  -0.0882  0.0043  1.0000  -9.7891   0.0000   0.2989
  23.000   1.0847   0.22869   0.22777  -0.0902  0.0042  1.0000  -9.6512   0.0000   0.3009
  23.100   1.0851   0.23062   0.22970  -0.0917  0.0042  1.0000  -9.6070   0.0000   0.3020
  23.200   1.0855   0.23253   0.23162  -0.0932  0.0042  1.0000  -9.5646   0.0000   0.3032
  23.300   1.0858   0.23454   0.23365  -0.0947  0.0042  1.0000  -9.5091   0.0000   0.3044
  23.400   1.0838   0.23740   0.23652  -0.0968  0.0041  1.0000  -9.3556   0.0000   0.3064
  23.500   1.0844   0.23929   0.23842  -0.0982  0.0041  1.0000  -9.3074   0.0000   0.3076
  23.600   1.0851   0.24114   0.24028  -0.0997  0.0041  1.0000  -9.2647   0.0000   0.3087
  23.700   1.0856   0.24314   0.24229  -0.1012  0.0041  1.0000  -9.2039   0.0000   0.3099
  23.800   1.0838   0.24605   0.24521  -0.1033  0.0040  1.0000  -9.0340   0.0000   0.3119
  23.900   1.0846   0.24790   0.24708  -0.1047  0.0040  1.0000  -8.9837   0.0000   0.3130
  24.000   1.0856   0.24973   0.24891  -0.1061  0.0039  1.0000  -8.9381   0.0000   0.3141


