xflr5 v6.47

 Calculated polar for: NACA 0010

 1 1 Reynolds number fixed          Mach number fixed         

 xtrf =   1.000 (top)        1.000 (bottom)
 Mach =   0.000     Re =     7.000 e 6     Ncrit =   9.000

  alpha     CL        CD       CDp       Cm    Top Xtr Bot Xtr   Cpmin    Chinge    XCp    
 ------- -------- --------- --------- -------- ------- ------- -------- --------- ---------
 -23.000  -1.0947   0.22458   0.22368   0.0875  1.0000  0.0042  -10.0739   0.0000   0.2973
 -22.900  -1.0952   0.22245   0.22153   0.0859  1.0000  0.0042  -10.1374   0.0000   0.2959
 -22.800  -1.0956   0.22037   0.21944   0.0843  1.0000  0.0042  -10.1934   0.0000   0.2946
 -22.700  -1.0967   0.21810   0.21716   0.0826  1.0000  0.0042  -10.2728   0.0000   0.2931
 -22.600  -1.1016   0.21457   0.21361   0.0800  1.0000  0.0042  -10.4773   0.0000   0.2904
 -22.500  -1.1027   0.21232   0.21134   0.0783  1.0000  0.0042  -10.5474   0.0000   0.2890
 -22.400  -1.1093   0.20839   0.20739   0.0755  1.0000  0.0043  -10.7884   0.0000   0.2860
 -22.300  -1.1121   0.20567   0.20464   0.0735  1.0000  0.0043  -10.8989   0.0000   0.2841
 -22.200  -1.1150   0.20294   0.20190   0.0714  1.0000  0.0043  -11.0096   0.0000   0.2823
 -22.100  -1.1260   0.19799   0.19691   0.0679  1.0000  0.0043  -11.3473   0.0000   0.2784
 -22.000  -1.1411   0.19203   0.19091   0.0636  1.0000  0.0043  -11.7781   0.0000   0.2738
 -21.800  -1.4039   0.13036   0.12859   0.0208  1.0000  0.0041  -17.4769   0.0000   0.2312
 -21.700  -1.4790   0.11490   0.11293   0.0113  1.0000  0.0040  -18.7708   0.0000   0.2240
 -21.600  -1.5271   0.10492   0.10282   0.0054  1.0000  0.0040  -19.5313   0.0000   0.2202
 -21.500  -1.5665   0.09667   0.09446   0.0007  1.0000  0.0040  -20.1198   0.0000   0.2173
 -21.400  -1.5982   0.08990   0.08760  -0.0031  1.0000  0.0039  -20.5663   0.0000   0.2152
 -21.300  -1.6247   0.08408   0.08169  -0.0063  1.0000  0.0039  -20.9185   0.0000   0.2135
 -21.200  -1.6478   0.07892   0.07646  -0.0092  1.0000  0.0039  -21.2076   0.0000   0.2121
 -21.100  -1.6675   0.07434   0.07181  -0.0117  1.0000  0.0039  -21.4388   0.0000   0.2109
 -21.000  -1.6847   0.07025   0.06765  -0.0140  1.0000  0.0039  -21.6250   0.0000   0.2099
 -20.900  -1.6996   0.06654   0.06388  -0.0160  1.0000  0.0039  -21.7721   0.0000   0.2091
 -20.800  -1.7127   0.06315   0.06044  -0.0179  1.0000  0.0039  -21.8890   0.0000   0.2084
 -20.700  -1.7242   0.06008   0.05731  -0.0195  1.0000  0.0039  -21.9781   0.0000   0.2078
 -20.600  -1.7342   0.05725   0.05444  -0.0210  1.0000  0.0039  -22.0416   0.0000   0.2073
 -20.500  -1.7429   0.05464   0.05178  -0.0224  1.0000  0.0039  -22.0845   0.0000   0.2069
 -20.400  -1.7505   0.05223   0.04933  -0.0236  1.0000  0.0039  -22.1096   0.0000   0.2065
 -20.300  -1.7571   0.05001   0.04706  -0.0247  1.0000  0.0039  -22.1173   0.0000   0.2062
 -20.200  -1.7627   0.04795   0.04495  -0.0257  1.0000  0.0039  -22.1096   0.0000   0.2060
 -20.100  -1.7675   0.04603   0.04300  -0.0266  1.0000  0.0039  -22.0891   0.0000   0.2058
 -20.000  -1.7717   0.04425   0.04118  -0.0273  1.0000  0.0039  -22.0576   0.0000   0.2057
 -19.900  -1.7751   0.04259   0.03949  -0.0280  1.0000  0.0039  -22.0146   0.0000   0.2056
 -19.800  -1.7779   0.04105   0.03791  -0.0286  1.0000  0.0039  -21.9620   0.0000   0.2056
 -19.700  -1.7803   0.03961   0.03643  -0.0291  1.0000  0.0040  -21.9017   0.0000   0.2056
 -19.600  -1.7821   0.03826   0.03506  -0.0294  1.0000  0.0040  -21.8338   0.0000   0.2057
 -19.500  -1.7835   0.03701   0.03377  -0.0297  1.0000  0.0040  -21.7581   0.0000   0.2058
 -19.400  -1.7845   0.03584   0.03256  -0.0299  1.0000  0.0040  -21.6762   0.0000   0.2059
 -19.300  -1.7851   0.03474   0.03144  -0.0301  1.0000  0.0040  -21.5888   0.0000   0.2061
 -19.200  -1.7854   0.03371   0.03038  -0.0301  1.0000  0.0040  -21.4966   0.0000   0.2064
 -19.100  -1.7853   0.03275   0.02939  -0.0301  1.0000  0.0040  -21.3986   0.0000   0.2066
 -19.000  -1.7848   0.03185   0.02847  -0.0300  1.0000  0.0040  -21.2961   0.0000   0.2069
 -18.900  -1.7842   0.03101   0.02760  -0.0299  1.0000  0.0041  -21.1901   0.0000   0.2072
 -18.800  -1.7833   0.03022   0.02678  -0.0296  1.0000  0.0041  -21.0800   0.0000   0.2076
 -18.700  -1.7821   0.02948   0.02602  -0.0294  1.0000  0.0041  -20.9659   0.0000   0.2080
 -18.600  -1.7807   0.02878   0.02530  -0.0290  1.0000  0.0041  -20.8493   0.0000   0.2084
 -18.500  -1.7791   0.02813   0.02462  -0.0287  1.0000  0.0041  -20.7296   0.0000   0.2088
 -18.400  -1.7772   0.02751   0.02398  -0.0282  1.0000  0.0041  -20.6065   0.0000   0.2093
 -18.300  -1.7752   0.02694   0.02338  -0.0277  1.0000  0.0041  -20.4812   0.0000   0.2097
 -18.200  -1.7729   0.02639   0.02281  -0.0272  1.0000  0.0041  -20.3533   0.0000   0.2102
 -18.100  -1.7705   0.02588   0.02228  -0.0267  1.0000  0.0042  -20.2231   0.0000   0.2107
 -18.000  -1.7679   0.02539   0.02177  -0.0261  1.0000  0.0042  -20.0909   0.0000   0.2113
 -17.900  -1.7651   0.02494   0.02129  -0.0254  1.0000  0.0042  -19.9564   0.0000   0.2118
 -17.800  -1.7622   0.02450   0.02084  -0.0248  1.0000  0.0042  -19.8203   0.0000   0.2124
 -17.700  -1.7591   0.02410   0.02041  -0.0241  1.0000  0.0042  -19.6821   0.0000   0.2130
 -17.600  -1.7558   0.02371   0.02001  -0.0233  1.0000  0.0042  -19.5425   0.0000   0.2136
 -17.500  -1.7524   0.02335   0.01963  -0.0226  1.0000  0.0042  -19.4012   0.0000   0.2142
 -17.400  -1.7489   0.02300   0.01926  -0.0218  1.0000  0.0042  -19.2585   0.0000   0.2148
 -17.300  -1.7452   0.02267   0.01891  -0.0210  1.0000  0.0043  -19.1146   0.0000   0.2155
 -17.200  -1.7414   0.02236   0.01859  -0.0202  1.0000  0.0043  -18.9695   0.0000   0.2161
 -17.100  -1.7375   0.02206   0.01827  -0.0193  1.0000  0.0043  -18.8234   0.0000   0.2168
 -17.000  -1.7334   0.02178   0.01797  -0.0185  1.0000  0.0043  -18.6762   0.0000   0.2175
 -16.900  -1.7292   0.02151   0.01769  -0.0176  1.0000  0.0043  -18.5270   0.0000   0.2182
 -16.800  -1.7245   0.02125   0.01741  -0.0168  1.0000  0.0043  -18.3737   0.0000   0.2188
 -16.700  -1.7189   0.02100   0.01714  -0.0161  1.0000  0.0043  -18.2116   0.0000   0.2194
 -16.600  -1.7126   0.02074   0.01688  -0.0156  1.0000  0.0043  -18.0437   0.0000   0.2198
 -16.500  -1.7068   0.02044   0.01655  -0.0150  1.0000  0.0043  -17.8844   0.0000   0.2203
 -16.400  -1.7010   0.02011   0.01620  -0.0144  1.0000  0.0044  -17.7324   0.0000   0.2209
 -16.300  -1.6948   0.01980   0.01587  -0.0138  1.0000  0.0044  -17.5771   0.0000   0.2214
 -16.200  -1.6884   0.01951   0.01556  -0.0133  1.0000  0.0045  -17.4191   0.0000   0.2218
 -16.100  -1.6817   0.01922   0.01526  -0.0128  1.0000  0.0046  -17.2585   0.0000   0.2223
 -16.000  -1.6748   0.01895   0.01497  -0.0123  1.0000  0.0046  -17.0956   0.0000   0.2227
 -15.900  -1.6677   0.01869   0.01470  -0.0119  1.0000  0.0047  -16.9307   0.0000   0.2232
 -15.800  -1.6603   0.01843   0.01443  -0.0115  1.0000  0.0047  -16.7641   0.0000   0.2236
 -15.700  -1.6528   0.01819   0.01418  -0.0111  1.0000  0.0048  -16.5961   0.0000   0.2240
 -15.600  -1.6451   0.01796   0.01393  -0.0107  1.0000  0.0048  -16.4269   0.0000   0.2244
 -15.500  -1.6372   0.01773   0.01369  -0.0103  1.0000  0.0048  -16.2567   0.0000   0.2248
 -15.400  -1.6293   0.01751   0.01346  -0.0100  1.0000  0.0049  -16.0859   0.0000   0.2251
 -15.300  -1.6211   0.01730   0.01324  -0.0097  1.0000  0.0049  -15.9146   0.0000   0.2255
 -15.200  -1.6129   0.01709   0.01302  -0.0093  1.0000  0.0050  -15.7430   0.0000   0.2259
 -15.100  -1.6046   0.01688   0.01281  -0.0090  1.0000  0.0050  -15.5710   0.0000   0.2262
 -15.000  -1.5961   0.01668   0.01260  -0.0087  1.0000  0.0050  -15.3989   0.0000   0.2266
 -14.900  -1.5876   0.01649   0.01239  -0.0084  1.0000  0.0051  -15.2267   0.0000   0.2269
 -14.800  -1.5790   0.01630   0.01220  -0.0082  1.0000  0.0051  -15.0545   0.0000   0.2272
 -14.700  -1.5703   0.01612   0.01200  -0.0079  1.0000  0.0051  -14.8821   0.0000   0.2276
 -14.600  -1.5615   0.01594   0.01181  -0.0076  1.0000  0.0052  -14.7098   0.0000   0.2279
 -14.500  -1.5526   0.01576   0.01163  -0.0074  1.0000  0.0052  -14.5377   0.0000   0.2282
 -14.400  -1.5436   0.01559   0.01145  -0.0071  1.0000  0.0052  -14.3657   0.0000   0.2285
 -14.300  -1.5346   0.01542   0.01127  -0.0069  1.0000  0.0053  -14.1941   0.0000   0.2288
 -14.200  -1.5255   0.01525   0.01109  -0.0067  1.0000  0.0053  -14.0227   0.0000   0.2291
 -14.100  -1.5163   0.01509   0.01092  -0.0065  1.0000  0.0053  -13.8515   0.0000   0.2294
 -14.000  -1.5071   0.01493   0.01076  -0.0062  1.0000  0.0053  -13.6807   0.0000   0.2297
 -13.900  -1.4978   0.01478   0.01059  -0.0060  1.0000  0.0054  -13.5103   0.0000   0.2300
 -13.800  -1.4885   0.01462   0.01043  -0.0058  1.0000  0.0054  -13.3402   0.0000   0.2303
 -13.700  -1.4791   0.01447   0.01027  -0.0056  1.0000  0.0054  -13.1705   0.0000   0.2306
 -13.600  -1.4696   0.01433   0.01012  -0.0055  1.0000  0.0054  -13.0012   0.0000   0.2309
 -13.500  -1.4603   0.01416   0.00994  -0.0052  1.0000  0.0055  -12.8360   0.0000   0.2312
 -13.400  -1.4512   0.01396   0.00973  -0.0050  1.0000  0.0056  -12.6754   0.0000   0.2315
 -13.300  -1.4420   0.01377   0.00954  -0.0048  1.0000  0.0057  -12.5141   0.0000   0.2318
 -13.200  -1.4327   0.01359   0.00935  -0.0046  1.0000  0.0058  -12.3520   0.0000   0.2321
 -13.100  -1.4233   0.01342   0.00918  -0.0044  1.0000  0.0058  -12.1895   0.0000   0.2324
 -13.000  -1.4138   0.01326   0.00901  -0.0042  1.0000  0.0059  -12.0267   0.0000   0.2326
 -12.900  -1.4043   0.01311   0.00885  -0.0040  1.0000  0.0060  -11.8638   0.0000   0.2329
 -12.800  -1.3946   0.01296   0.00870  -0.0038  1.0000  0.0061  -11.7011   0.0000   0.2332
 -12.700  -1.3849   0.01281   0.00855  -0.0036  1.0000  0.0062  -11.5388   0.0000   0.2335
 -12.600  -1.3752   0.01267   0.00840  -0.0035  1.0000  0.0062  -11.3769   0.0000   0.2337
 -12.500  -1.3653   0.01254   0.00826  -0.0033  1.0000  0.0063  -11.2155   0.0000   0.2340
 -12.400  -1.3555   0.01241   0.00813  -0.0032  1.0000  0.0064  -11.0547   0.0000   0.2342
 -12.300  -1.3456   0.01228   0.00800  -0.0030  1.0000  0.0064  -10.8945   0.0000   0.2345
 -12.200  -1.3356   0.01216   0.00787  -0.0029  1.0000  0.0065  -10.7349   0.0000   0.2347
 -12.100  -1.3256   0.01203   0.00774  -0.0028  1.0000  0.0065  -10.5762   0.0000   0.2350
 -12.000  -1.3156   0.01191   0.00762  -0.0026  1.0000  0.0066  -10.4182   0.0000   0.2352
 -11.900  -1.3055   0.01180   0.00750  -0.0025  1.0000  0.0066  -10.2609   0.0000   0.2355
 -11.800  -1.2954   0.01168   0.00738  -0.0024  1.0000  0.0066  -10.1064   0.0000   0.2357
 -11.700  -1.2853   0.01157   0.00726  -0.0023  1.0000  0.0067  -9.9564   0.0000   0.2359
 -11.600  -1.2752   0.01146   0.00714  -0.0021  1.0000  0.0067  -9.8081   0.0000   0.2362
 -11.500  -1.2653   0.01131   0.00699  -0.0020  1.0000  0.0068  -9.6653   0.0000   0.2364
 -11.400  -1.2554   0.01116   0.00684  -0.0018  1.0000  0.0070  -9.5220   0.0000   0.2367
 -11.300  -1.2454   0.01103   0.00670  -0.0017  1.0000  0.0071  -9.3783   0.0000   0.2369
 -11.200  -1.2353   0.01090   0.00658  -0.0015  1.0000  0.0073  -9.2345   0.0000   0.2372
 -11.100  -1.2252   0.01078   0.00645  -0.0014  1.0000  0.0074  -9.0910   0.0000   0.2374
 -11.000  -1.2151   0.01067   0.00634  -0.0013  1.0000  0.0075  -8.9480   0.0000   0.2377
 -10.900  -1.2049   0.01055   0.00622  -0.0011  1.0000  0.0076  -8.8057   0.0000   0.2379
 -10.800  -1.1947   0.01045   0.00612  -0.0010  1.0000  0.0077  -8.6641   0.0000   0.2382
 -10.700  -1.1844   0.01034   0.00601  -0.0009  1.0000  0.0078  -8.5232   0.0000   0.2384
 -10.600  -1.1741   0.01024   0.00591  -0.0008  1.0000  0.0078  -8.3832   0.0000   0.2386
 -10.500  -1.1639   0.01014   0.00581  -0.0006  1.0000  0.0079  -8.2439   0.0000   0.2389
 -10.400  -1.1536   0.01005   0.00571  -0.0005  1.0000  0.0080  -8.1055   0.0000   0.2391
 -10.300  -1.1433   0.00996   0.00562  -0.0004  1.0000  0.0080  -7.9680   0.0000   0.2394
 -10.200  -1.1330   0.00987   0.00553  -0.0003  1.0000  0.0081  -7.8315   0.0000   0.2396
 -10.100  -1.1229   0.00976   0.00541  -0.0001  1.0000  0.0082  -7.6990   0.0000   0.2399
 -10.000  -1.1128   0.00964   0.00529   0.0001  1.0000  0.0085  -7.5678   0.0000   0.2402
  -9.900  -1.1028   0.00953   0.00519   0.0003  1.0000  0.0087  -7.4367   0.0000   0.2405
  -9.800  -1.0928   0.00943   0.00509   0.0005  1.0000  0.0089  -7.3062   0.0000   0.2408
  -9.700  -1.0827   0.00933   0.00499   0.0007  1.0000  0.0090  -7.1767   0.0000   0.2411
  -9.600  -1.0728   0.00924   0.00490   0.0009  1.0000  0.0092  -7.0482   0.0000   0.2414
  -9.500  -1.0629   0.00915   0.00482   0.0011  1.0000  0.0093  -6.9211   0.0000   0.2418
  -9.400  -1.0530   0.00907   0.00473   0.0013  1.0000  0.0094  -6.7951   0.0000   0.2421
  -9.300  -1.0431   0.00899   0.00465   0.0016  1.0000  0.0095  -6.6701   0.0000   0.2425
  -9.200  -1.0332   0.00891   0.00457   0.0018  1.0000  0.0096  -6.5461   0.0000   0.2429
  -9.100  -1.0234   0.00884   0.00450   0.0021  1.0000  0.0096  -6.4276   0.0000   0.2433
  -9.000  -1.0139   0.00874   0.00440   0.0024  1.0000  0.0099  -6.3145   0.0000   0.2437
  -8.900  -1.0042   0.00864   0.00431   0.0027  1.0000  0.0102  -6.2003   0.0000   0.2441
  -8.800  -0.9920   0.00854   0.00421   0.0024  0.9998  0.0105  -6.0734   0.0000   0.2440
  -8.700  -0.9799   0.00845   0.00412   0.0021  0.9996  0.0107  -5.9473   0.0000   0.2439
  -8.600  -0.9676   0.00837   0.00404   0.0018  0.9993  0.0109  -5.8219   0.0000   0.2437
  -8.500  -0.9554   0.00828   0.00396   0.0015  0.9990  0.0111  -5.6973   0.0000   0.2436
  -8.400  -0.9431   0.00821   0.00389   0.0013  0.9987  0.0112  -5.5735   0.0000   0.2434
  -8.300  -0.9307   0.00813   0.00381   0.0010  0.9984  0.0114  -5.4505   0.0000   0.2432
  -8.200  -0.9184   0.00804   0.00373   0.0007  0.9981  0.0117  -5.3299   0.0000   0.2430
  -8.100  -0.9061   0.00795   0.00364   0.0004  0.9978  0.0122  -5.2100   0.0000   0.2428
  -8.000  -0.8937   0.00786   0.00356   0.0000  0.9975  0.0125  -5.0905   0.0000   0.2426
  -7.900  -0.8812   0.00778   0.00348  -0.0003  0.9972  0.0128  -4.9715   0.0000   0.2423
  -7.800  -0.8687   0.00770   0.00341  -0.0006  0.9969  0.0131  -4.8534   0.0000   0.2420
  -7.700  -0.8561   0.00763   0.00334  -0.0010  0.9966  0.0133  -4.7361   0.0000   0.2417
  -7.600  -0.8439   0.00756   0.00327  -0.0012  0.9959  0.0136  -4.6224   0.0000   0.2415
  -7.500  -0.8324   0.00747   0.00320  -0.0013  0.9947  0.0141  -4.5145   0.0000   0.2414
  -7.400  -0.8208   0.00739   0.00312  -0.0015  0.9935  0.0146  -4.4104   0.0000   0.2414
  -7.300  -0.8088   0.00732   0.00306  -0.0017  0.9923  0.0149  -4.3056   0.0000   0.2412
  -7.200  -0.7966   0.00726   0.00299  -0.0019  0.9911  0.0153  -4.2012   0.0000   0.2409
  -7.100  -0.7845   0.00720   0.00294  -0.0021  0.9899  0.0155  -4.0977   0.0000   0.2407
  -7.000  -0.7736   0.00712   0.00287  -0.0021  0.9877  0.0161  -4.0011   0.0000   0.2408
  -6.900  -0.7625   0.00705   0.00280  -0.0021  0.9855  0.0168  -3.9043   0.0000   0.2409
  -6.800  -0.7514   0.00698   0.00274  -0.0021  0.9832  0.0173  -3.8081   0.0000   0.2410
  -6.700  -0.7406   0.00693   0.00269  -0.0020  0.9806  0.0177  -3.7141   0.0000   0.2411
  -6.600  -0.7300   0.00687   0.00263  -0.0018  0.9774  0.0181  -3.6217   0.0000   0.2414
  -6.500  -0.7196   0.00681   0.00257  -0.0017  0.9744  0.0189  -3.5315   0.0000   0.2417
  -6.400  -0.7090   0.00675   0.00251  -0.0015  0.9709  0.0196  -3.4411   0.0000   0.2419
  -6.300  -0.6986   0.00669   0.00246  -0.0013  0.9670  0.0202  -3.3529   0.0000   0.2422
  -6.200  -0.6879   0.00665   0.00241  -0.0012  0.9634  0.0206  -3.2682   0.0000   0.2425
  -6.100  -0.6773   0.00659   0.00235  -0.0011  0.9590  0.0215  -3.1852   0.0000   0.2427
  -6.000  -0.6667   0.00653   0.00229  -0.0009  0.9549  0.0225  -3.1028   0.0000   0.2430
  -5.900  -0.6560   0.00648   0.00224  -0.0008  0.9500  0.0233  -3.0205   0.0000   0.2432
  -5.800  -0.6453   0.00644   0.00219  -0.0007  0.9454  0.0239  -2.9388   0.0000   0.2435
  -5.700  -0.6345   0.00639   0.00213  -0.0006  0.9401  0.0253  -2.8583   0.0000   0.2437
  -5.600  -0.6237   0.00634   0.00208  -0.0005  0.9349  0.0263  -2.7783   0.0000   0.2439
  -5.500  -0.6129   0.00630   0.00203  -0.0004  0.9290  0.0270  -2.6987   0.0000   0.2441
  -5.400  -0.6019   0.00626   0.00198  -0.0003  0.9233  0.0283  -2.6199   0.0000   0.2443
  -5.300  -0.5911   0.00621   0.00193  -0.0003  0.9171  0.0298  -2.5462   0.0000   0.2445
  -5.200  -0.5801   0.00617   0.00188  -0.0002  0.9105  0.0309  -2.4727   0.0000   0.2447
  -5.100  -0.5692   0.00613   0.00183  -0.0001  0.9039  0.0326  -2.4003   0.0000   0.2448
  -5.000  -0.5582   0.00609   0.00178  -0.0001  0.8969  0.0343  -2.3286   0.0000   0.2450
  -4.900  -0.5472   0.00606   0.00174  -0.0000  0.8894  0.0355  -2.2572   0.0000   0.2452
  -4.800  -0.5362   0.00602   0.00169   0.0000  0.8819  0.0376  -2.1868   0.0000   0.2453
  -4.700  -0.5252   0.00598   0.00165   0.0001  0.8742  0.0396  -2.1172   0.0000   0.2455
  -4.600  -0.5141   0.00595   0.00160   0.0001  0.8661  0.0413  -2.0517   0.0000   0.2456
  -4.500  -0.5031   0.00591   0.00156   0.0001  0.8578  0.0443  -1.9874   0.0000   0.2457
  -4.400  -0.4920   0.00588   0.00152   0.0002  0.8491  0.0461  -1.9231   0.0000   0.2459
  -4.300  -0.4809   0.00584   0.00148   0.0002  0.8402  0.0493  -1.8599   0.0000   0.2460
  -4.200  -0.4698   0.00581   0.00144   0.0002  0.8313  0.0518  -1.7970   0.0000   0.2461
  -4.100  -0.4587   0.00578   0.00139   0.0002  0.8221  0.0554  -1.7359   0.0000   0.2462
  -4.000  -0.4476   0.00574   0.00135   0.0003  0.8128  0.0586  -1.6778   0.0000   0.2463
  -3.900  -0.4364   0.00571   0.00132   0.0003  0.8033  0.0624  -1.6204   0.0000   0.2464
  -3.800  -0.4253   0.00568   0.00128   0.0003  0.7938  0.0658  -1.5635   0.0000   0.2465
  -3.700  -0.4142   0.00565   0.00124   0.0003  0.7840  0.0705  -1.5073   0.0000   0.2467
  -3.600  -0.4030   0.00562   0.00121   0.0003  0.7741  0.0742  -1.4542   0.0000   0.2467
  -3.500  -0.3919   0.00559   0.00117   0.0003  0.7642  0.0800  -1.4023   0.0000   0.2469
  -3.400  -0.3807   0.00556   0.00114   0.0003  0.7541  0.0846  -1.3507   0.0000   0.2469
  -3.300  -0.3696   0.00553   0.00110   0.0003  0.7440  0.0901  -1.2998   0.0000   0.2470
  -3.200  -0.3585   0.00549   0.00107   0.0003  0.7338  0.0967  -1.2519   0.0000   0.2471
  -3.100  -0.3473   0.00547   0.00103   0.0003  0.7236  0.1025  -1.2046   0.0000   0.2472
  -3.000  -0.3361   0.00544   0.00100   0.0003  0.7133  0.1086  -1.1579   0.0000   0.2473
  -2.900  -0.3250   0.00541   0.00097   0.0004  0.7030  0.1160  -1.1135   0.0000   0.2474
  -2.800  -0.3139   0.00537   0.00094   0.0004  0.6926  0.1235  -1.0704   0.0000   0.2475
  -2.700  -0.3027   0.00534   0.00091   0.0004  0.6823  0.1313  -1.0276   0.0000   0.2475
  -2.600  -0.2915   0.00532   0.00089   0.0004  0.6719  0.1391  -0.9873   0.0000   0.2476
  -2.500  -0.2804   0.00529   0.00086   0.0004  0.6616  0.1471  -0.9477   0.0000   0.2477
  -2.400  -0.2692   0.00526   0.00084   0.0003  0.6512  0.1556  -0.9090   0.0000   0.2478
  -2.200  -0.2468   0.00521   0.00079   0.0003  0.6306  0.1733  -0.8361   0.0000   0.2479
  -2.100  -0.2356   0.00518   0.00076   0.0003  0.6203  0.1824  -0.8021   0.0000   0.2480
  -2.000  -0.2244   0.00515   0.00074   0.0003  0.6099  0.1920  -0.7685   0.0000   0.2480
  -1.900  -0.2133   0.00513   0.00072   0.0003  0.5997  0.2016  -0.7370   0.0000   0.2481
  -1.800  -0.2021   0.00510   0.00070   0.0003  0.5893  0.2116  -0.7060   0.0000   0.2482
  -1.700  -0.1909   0.00508   0.00068   0.0003  0.5790  0.2216  -0.6768   0.0000   0.2482
  -1.600  -0.1797   0.00505   0.00067   0.0003  0.5686  0.2318  -0.6486   0.0000   0.2483
  -1.500  -0.1685   0.00503   0.00065   0.0003  0.5583  0.2422  -0.6216   0.0000   0.2483
  -1.400  -0.1573   0.00501   0.00063   0.0003  0.5479  0.2525  -0.5959   0.0000   0.2484
  -1.300  -0.1460   0.00499   0.00062   0.0002  0.5376  0.2631  -0.5712   0.0000   0.2484
  -1.200  -0.1348   0.00498   0.00061   0.0002  0.5272  0.2734  -0.5479   0.0000   0.2484
  -1.100  -0.1236   0.00496   0.00059   0.0002  0.5167  0.2841  -0.5257   0.0000   0.2485
  -1.000  -0.1124   0.00495   0.00058   0.0002  0.5064  0.2945  -0.5045   0.0000   0.2485
  -0.900  -0.1011   0.00493   0.00057   0.0002  0.4959  0.3052  -0.4843   0.0000   0.2485
  -0.800  -0.0899   0.00492   0.00057   0.0002  0.4855  0.3155  -0.4654   0.0000   0.2485
  -0.700  -0.0787   0.00491   0.00056   0.0001  0.4749  0.3263  -0.4475   0.0000   0.2486
  -0.600  -0.0674   0.00490   0.00055   0.0001  0.4646  0.3370  -0.4304   0.0000   0.2486
  -0.500  -0.0562   0.00489   0.00055   0.0001  0.4540  0.3479  -0.4141   0.0000   0.2487
  -0.400  -0.0450   0.00489   0.00054   0.0001  0.4436  0.3586  -0.3986   0.0000   0.2487
  -0.300  -0.0337   0.00488   0.00054   0.0001  0.4329  0.3694  -0.3840   0.0000   0.2487
  -0.200  -0.0225   0.00488   0.00053   0.0000  0.4226  0.3801  -0.3701   0.0000   0.2487
  -0.100  -0.0112   0.00487   0.00053   0.0000  0.4120  0.3908  -0.3567   0.0000   0.2487
   0.000   0.0000   0.00487   0.00053  -0.0000  0.4015  0.4015  -0.3439   0.0000   0.3824
   0.100   0.0112   0.00487   0.00053  -0.0000  0.3908  0.4120  -0.3567   0.0000   0.2487
   0.200   0.0225   0.00488   0.00053  -0.0000  0.3801  0.4226  -0.3701   0.0000   0.2487
   0.300   0.0337   0.00488   0.00054  -0.0001  0.3694  0.4330  -0.3840   0.0000   0.2487
   0.400   0.0450   0.00489   0.00054  -0.0001  0.3586  0.4436  -0.3986   0.0000   0.2487
   0.500   0.0562   0.00489   0.00055  -0.0001  0.3479  0.4539  -0.4141   0.0000   0.2487
   0.600   0.0674   0.00490   0.00055  -0.0001  0.3370  0.4646  -0.4304   0.0000   0.2486
   0.700   0.0787   0.00491   0.00056  -0.0001  0.3263  0.4749  -0.4475   0.0000   0.2486
   0.800   0.0899   0.00492   0.00057  -0.0002  0.3155  0.4855  -0.4654   0.0000   0.2486
   0.900   0.1011   0.00493   0.00057  -0.0002  0.3052  0.4959  -0.4843   0.0000   0.2485
   1.000   0.1124   0.00495   0.00058  -0.0002  0.2945  0.5064  -0.5045   0.0000   0.2485
   1.100   0.1236   0.00496   0.00059  -0.0002  0.2841  0.5167  -0.5257   0.0000   0.2485
   1.200   0.1348   0.00498   0.00061  -0.0002  0.2734  0.5272  -0.5479   0.0000   0.2484
   1.300   0.1460   0.00499   0.00062  -0.0002  0.2631  0.5376  -0.5712   0.0000   0.2484
   1.400   0.1573   0.00501   0.00063  -0.0003  0.2525  0.5480  -0.5959   0.0000   0.2484
   1.500   0.1685   0.00503   0.00065  -0.0003  0.2422  0.5583  -0.6216   0.0000   0.2483
   1.600   0.1797   0.00505   0.00067  -0.0003  0.2318  0.5686  -0.6486   0.0000   0.2483
   1.700   0.1909   0.00508   0.00068  -0.0003  0.2216  0.5790  -0.6769   0.0000   0.2482
   1.800   0.2021   0.00510   0.00070  -0.0003  0.2116  0.5893  -0.7060   0.0000   0.2482
   1.900   0.2133   0.00513   0.00072  -0.0003  0.2016  0.5997  -0.7370   0.0000   0.2481
   2.000   0.2245   0.00515   0.00074  -0.0003  0.1920  0.6100  -0.7685   0.0000   0.2480
   2.100   0.2356   0.00518   0.00076  -0.0003  0.1824  0.6203  -0.8021   0.0000   0.2480
   2.200   0.2468   0.00521   0.00079  -0.0003  0.1733  0.6306  -0.8361   0.0000   0.2479
   2.400   0.2692   0.00526   0.00084  -0.0004  0.1556  0.6512  -0.9090   0.0000   0.2478
   2.500   0.2804   0.00529   0.00086  -0.0004  0.1471  0.6616  -0.9477   0.0000   0.2477
   2.600   0.2915   0.00532   0.00089  -0.0004  0.1391  0.6719  -0.9873   0.0000   0.2476
   2.700   0.3027   0.00534   0.00091  -0.0004  0.1313  0.6823  -1.0277   0.0000   0.2476
   2.800   0.3139   0.00537   0.00094  -0.0004  0.1235  0.6926  -1.0704   0.0000   0.2475
   2.900   0.3250   0.00541   0.00097  -0.0004  0.1160  0.7030  -1.1135   0.0000   0.2474
   3.000   0.3361   0.00544   0.00100  -0.0004  0.1086  0.7133  -1.1579   0.0000   0.2473
   3.100   0.3473   0.00547   0.00103  -0.0003  0.1025  0.7236  -1.2047   0.0000   0.2472
   3.200   0.3585   0.00549   0.00107  -0.0003  0.0967  0.7338  -1.2519   0.0000   0.2471
   3.300   0.3696   0.00553   0.00110  -0.0003  0.0901  0.7440  -1.2998   0.0000   0.2470
   3.400   0.3807   0.00556   0.00114  -0.0003  0.0846  0.7541  -1.3507   0.0000   0.2469
   3.500   0.3919   0.00559   0.00117  -0.0003  0.0800  0.7641  -1.4023   0.0000   0.2469
   3.600   0.4030   0.00562   0.00121  -0.0003  0.0742  0.7741  -1.4542   0.0000   0.2467
   3.700   0.4142   0.00565   0.00124  -0.0003  0.0705  0.7840  -1.5073   0.0000   0.2467
   3.800   0.4253   0.00568   0.00128  -0.0003  0.0658  0.7938  -1.5635   0.0000   0.2466
   3.900   0.4365   0.00571   0.00132  -0.0003  0.0624  0.8034  -1.6204   0.0000   0.2465
   4.000   0.4476   0.00574   0.00135  -0.0003  0.0586  0.8128  -1.6778   0.0000   0.2463
   4.100   0.4587   0.00578   0.00139  -0.0002  0.0554  0.8221  -1.7359   0.0000   0.2462
   4.200   0.4698   0.00581   0.00144  -0.0002  0.0518  0.8313  -1.7971   0.0000   0.2461
   4.300   0.4809   0.00584   0.00148  -0.0002  0.0493  0.8402  -1.8599   0.0000   0.2460
   4.400   0.4920   0.00588   0.00152  -0.0002  0.0461  0.8491  -1.9232   0.0000   0.2459
   4.500   0.5031   0.00591   0.00156  -0.0001  0.0443  0.8578  -1.9874   0.0000   0.2458
   4.600   0.5141   0.00595   0.00160  -0.0001  0.0413  0.8661  -2.0518   0.0000   0.2456
   4.700   0.5252   0.00598   0.00165  -0.0001  0.0396  0.8742  -2.1172   0.0000   0.2455
   4.800   0.5362   0.00602   0.00169  -0.0000  0.0376  0.8819  -2.1869   0.0000   0.2453
   4.900   0.5472   0.00606   0.00174   0.0000  0.0355  0.8894  -2.2573   0.0000   0.2452
   5.000   0.5583   0.00609   0.00178   0.0001  0.0343  0.8969  -2.3287   0.0000   0.2450
   5.100   0.5692   0.00613   0.00183   0.0001  0.0326  0.9039  -2.4003   0.0000   0.2449
   5.200   0.5802   0.00617   0.00188   0.0002  0.0309  0.9105  -2.4728   0.0000   0.2447
   5.300   0.5911   0.00621   0.00193   0.0002  0.0298  0.9171  -2.5463   0.0000   0.2445
   5.400   0.6020   0.00626   0.00198   0.0003  0.0283  0.9233  -2.6200   0.0000   0.2443
   5.500   0.6129   0.00630   0.00203   0.0004  0.0270  0.9290  -2.6988   0.0000   0.2441
   5.600   0.6237   0.00634   0.00208   0.0005  0.0263  0.9349  -2.7784   0.0000   0.2439
   5.700   0.6345   0.00639   0.00213   0.0006  0.0253  0.9400  -2.8585   0.0000   0.2437
   5.800   0.6453   0.00644   0.00219   0.0007  0.0239  0.9454  -2.9389   0.0000   0.2435
   5.900   0.6560   0.00648   0.00224   0.0008  0.0233  0.9500  -3.0206   0.0000   0.2433
   6.000   0.6668   0.00653   0.00229   0.0009  0.0225  0.9548  -3.1029   0.0000   0.2430
   6.100   0.6774   0.00659   0.00235   0.0011  0.0215  0.9590  -3.1853   0.0000   0.2428
   6.200   0.6879   0.00665   0.00241   0.0012  0.0206  0.9634  -3.2684   0.0000   0.2425
   6.300   0.6986   0.00669   0.00246   0.0013  0.0202  0.9670  -3.3530   0.0000   0.2422
   6.400   0.7090   0.00675   0.00251   0.0015  0.0196  0.9709  -3.4412   0.0000   0.2419
   6.500   0.7196   0.00681   0.00257   0.0016  0.0189  0.9743  -3.5317   0.0000   0.2417
   6.600   0.7301   0.00687   0.00263   0.0018  0.0181  0.9774  -3.6219   0.0000   0.2414
   6.700   0.7407   0.00693   0.00269   0.0020  0.0177  0.9806  -3.7143   0.0000   0.2412
   6.800   0.7515   0.00698   0.00274   0.0020  0.0173  0.9832  -3.8083   0.0000   0.2410
   6.900   0.7626   0.00705   0.00280   0.0021  0.0168  0.9854  -3.9044   0.0000   0.2409
   7.000   0.7737   0.00712   0.00287   0.0021  0.0161  0.9877  -4.0012   0.0000   0.2408
   7.100   0.7846   0.00720   0.00294   0.0021  0.0155  0.9899  -4.0978   0.0000   0.2407
   7.200   0.7967   0.00726   0.00299   0.0019  0.0153  0.9911  -4.2013   0.0000   0.2410
   7.300   0.8088   0.00732   0.00306   0.0017  0.0149  0.9923  -4.3057   0.0000   0.2412
   7.400   0.8208   0.00739   0.00312   0.0015  0.0146  0.9935  -4.4105   0.0000   0.2414
   7.500   0.8325   0.00747   0.00320   0.0013  0.0141  0.9947  -4.5146   0.0000   0.2415
   7.600   0.8440   0.00756   0.00327   0.0012  0.0136  0.9959  -4.6225   0.0000   0.2415
   7.700   0.8561   0.00763   0.00334   0.0010  0.0133  0.9966  -4.7363   0.0000   0.2417
   7.800   0.8687   0.00770   0.00341   0.0006  0.0131  0.9969  -4.8536   0.0000   0.2420
   7.900   0.8812   0.00778   0.00348   0.0003  0.0128  0.9972  -4.9717   0.0000   0.2423
   8.000   0.8937   0.00786   0.00356  -0.0000  0.0125  0.9975  -5.0907   0.0000   0.2426
   8.100   0.9061   0.00795   0.00364  -0.0004  0.0122  0.9978  -5.2102   0.0000   0.2428
   8.200   0.9185   0.00804   0.00373  -0.0007  0.0117  0.9981  -5.3301   0.0000   0.2430
   8.300   0.9308   0.00813   0.00381  -0.0010  0.0114  0.9984  -5.4507   0.0000   0.2432
   8.400   0.9431   0.00821   0.00389  -0.0013  0.0112  0.9987  -5.5737   0.0000   0.2434
   8.500   0.9554   0.00828   0.00396  -0.0016  0.0111  0.9990  -5.6975   0.0000   0.2436
   8.600   0.9677   0.00837   0.00404  -0.0018  0.0109  0.9993  -5.8221   0.0000   0.2438
   8.700   0.9799   0.00845   0.00412  -0.0021  0.0107  0.9996  -5.9475   0.0000   0.2439
   8.800   0.9921   0.00854   0.00421  -0.0024  0.0105  0.9998  -6.0737   0.0000   0.2440
   8.900   1.0042   0.00864   0.00431  -0.0027  0.0102  1.0000  -6.2005   0.0000   0.2442
   9.000   1.0139   0.00874   0.00440  -0.0024  0.0099  1.0000  -6.3142   0.0000   0.2437
   9.100   1.0234   0.00884   0.00450  -0.0021  0.0096  1.0000  -6.4273   0.0000   0.2433
   9.200   1.0332   0.00891   0.00457  -0.0018  0.0096  1.0000  -6.5458   0.0000   0.2429
   9.300   1.0431   0.00899   0.00465  -0.0016  0.0095  1.0000  -6.6698   0.0000   0.2425
   9.400   1.0529   0.00907   0.00473  -0.0013  0.0094  1.0000  -6.7949   0.0000   0.2421
   9.500   1.0628   0.00915   0.00481  -0.0011  0.0093  1.0000  -6.9209   0.0000   0.2418
   9.600   1.0728   0.00924   0.00490  -0.0009  0.0092  1.0000  -7.0481   0.0000   0.2414
   9.700   1.0827   0.00933   0.00499  -0.0006  0.0090  1.0000  -7.1765   0.0000   0.2411
   9.800   1.0927   0.00943   0.00509  -0.0005  0.0089  1.0000  -7.3061   0.0000   0.2408
   9.900   1.1028   0.00953   0.00519  -0.0003  0.0087  1.0000  -7.4367   0.0000   0.2405
  10.000   1.1128   0.00964   0.00529  -0.0001  0.0085  1.0000  -7.5679   0.0000   0.2402
  10.100   1.1229   0.00976   0.00541   0.0001  0.0082  1.0000  -7.6991   0.0000   0.2399
  10.200   1.1330   0.00987   0.00553   0.0003  0.0081  1.0000  -7.8316   0.0000   0.2396
  10.300   1.1433   0.00996   0.00562   0.0004  0.0080  1.0000  -7.9682   0.0000   0.2394
  10.400   1.1536   0.01005   0.00571   0.0005  0.0080  1.0000  -8.1057   0.0000   0.2391
  10.500   1.1639   0.01014   0.00581   0.0006  0.0079  1.0000  -8.2442   0.0000   0.2389
  10.600   1.1742   0.01024   0.00591   0.0007  0.0078  1.0000  -8.3834   0.0000   0.2386
  10.700   1.1844   0.01034   0.00601   0.0009  0.0078  1.0000  -8.5235   0.0000   0.2384
  10.800   1.1947   0.01045   0.00612   0.0010  0.0077  1.0000  -8.6644   0.0000   0.2382
  10.900   1.2049   0.01055   0.00622   0.0011  0.0076  1.0000  -8.8060   0.0000   0.2379
  11.000   1.2151   0.01067   0.00634   0.0012  0.0075  1.0000  -8.9484   0.0000   0.2377
  11.100   1.2253   0.01078   0.00645   0.0014  0.0074  1.0000  -9.0914   0.0000   0.2375
  11.200   1.2354   0.01090   0.00658   0.0015  0.0073  1.0000  -9.2349   0.0000   0.2372
  11.300   1.2455   0.01103   0.00670   0.0016  0.0071  1.0000  -9.3788   0.0000   0.2370
  11.400   1.2555   0.01116   0.00684   0.0018  0.0070  1.0000  -9.5225   0.0000   0.2367
  11.500   1.2654   0.01131   0.00699   0.0019  0.0068  1.0000  -9.6658   0.0000   0.2364
  11.600   1.2752   0.01146   0.00714   0.0021  0.0067  1.0000  -9.8086   0.0000   0.2362
  11.700   1.2854   0.01157   0.00726   0.0022  0.0067  1.0000  -9.9569   0.0000   0.2359
  11.800   1.2955   0.01168   0.00738   0.0024  0.0066  1.0000  -10.1070   0.0000   0.2357
  11.900   1.3056   0.01180   0.00750   0.0025  0.0066  1.0000  -10.2616   0.0000   0.2355
  12.000   1.3157   0.01191   0.00762   0.0026  0.0066  1.0000  -10.4189   0.0000   0.2352
  12.100   1.3257   0.01203   0.00774   0.0027  0.0065  1.0000  -10.5769   0.0000   0.2350
  12.200   1.3357   0.01216   0.00787   0.0029  0.0065  1.0000  -10.7356   0.0000   0.2347
  12.300   1.3457   0.01228   0.00800   0.0030  0.0064  1.0000  -10.8952   0.0000   0.2345
  12.400   1.3556   0.01241   0.00813   0.0032  0.0064  1.0000  -11.0554   0.0000   0.2342
  12.500   1.3654   0.01254   0.00826   0.0033  0.0063  1.0000  -11.2162   0.0000   0.2340
  12.600   1.3753   0.01267   0.00840   0.0035  0.0062  1.0000  -11.3777   0.0000   0.2337
  12.700   1.3850   0.01281   0.00855   0.0036  0.0062  1.0000  -11.5396   0.0000   0.2335
  12.800   1.3947   0.01296   0.00870   0.0038  0.0061  1.0000  -11.7020   0.0000   0.2332
  12.900   1.4044   0.01311   0.00885   0.0040  0.0060  1.0000  -11.8647   0.0000   0.2329
  13.000   1.4140   0.01326   0.00901   0.0041  0.0059  1.0000  -12.0276   0.0000   0.2327
  13.100   1.4235   0.01342   0.00918   0.0043  0.0058  1.0000  -12.1905   0.0000   0.2324
  13.200   1.4329   0.01359   0.00935   0.0045  0.0058  1.0000  -12.3530   0.0000   0.2321
  13.300   1.4422   0.01377   0.00954   0.0047  0.0057  1.0000  -12.5151   0.0000   0.2318
  13.400   1.4514   0.01396   0.00973   0.0050  0.0056  1.0000  -12.6765   0.0000   0.2315
  13.500   1.4605   0.01416   0.00994   0.0052  0.0055  1.0000  -12.8371   0.0000   0.2312
  13.600   1.4698   0.01433   0.01012   0.0054  0.0054  1.0000  -13.0024   0.0000   0.2309
  13.700   1.4792   0.01447   0.01027   0.0056  0.0054  1.0000  -13.1717   0.0000   0.2306
  13.800   1.4886   0.01462   0.01043   0.0058  0.0054  1.0000  -13.3414   0.0000   0.2303
  13.900   1.4980   0.01478   0.01059   0.0060  0.0054  1.0000  -13.5116   0.0000   0.2300
  14.000   1.5073   0.01493   0.01076   0.0062  0.0053  1.0000  -13.6821   0.0000   0.2297
  14.100   1.5165   0.01509   0.01092   0.0064  0.0053  1.0000  -13.8529   0.0000   0.2294
  14.200   1.5257   0.01525   0.01109   0.0066  0.0053  1.0000  -14.0241   0.0000   0.2291
  14.300   1.5348   0.01542   0.01127   0.0069  0.0053  1.0000  -14.1955   0.0000   0.2288
  14.400   1.5438   0.01559   0.01145   0.0071  0.0052  1.0000  -14.3673   0.0000   0.2285
  14.500   1.5527   0.01576   0.01163   0.0073  0.0052  1.0000  -14.5392   0.0000   0.2282
  14.600   1.5616   0.01594   0.01181   0.0076  0.0052  1.0000  -14.7114   0.0000   0.2279
  14.700   1.5705   0.01612   0.01200   0.0078  0.0051  1.0000  -14.8838   0.0000   0.2276
  14.800   1.5792   0.01630   0.01220   0.0081  0.0051  1.0000  -15.0562   0.0000   0.2273
  14.900   1.5878   0.01649   0.01239   0.0084  0.0051  1.0000  -15.2286   0.0000   0.2269
  15.000   1.5964   0.01669   0.01260   0.0087  0.0050  1.0000  -15.4008   0.0000   0.2266
  15.100   1.6048   0.01688   0.01281   0.0090  0.0050  1.0000  -15.5730   0.0000   0.2262
  15.200   1.6131   0.01709   0.01302   0.0093  0.0050  1.0000  -15.7450   0.0000   0.2259
  15.300   1.6214   0.01730   0.01324   0.0096  0.0049  1.0000  -15.9167   0.0000   0.2255
  15.400   1.6295   0.01751   0.01346   0.0099  0.0049  1.0000  -16.0881   0.0000   0.2252
  15.500   1.6375   0.01773   0.01369   0.0103  0.0048  1.0000  -16.2590   0.0000   0.2248
  15.600   1.6453   0.01796   0.01393   0.0106  0.0048  1.0000  -16.4292   0.0000   0.2244
  15.700   1.6530   0.01819   0.01418   0.0110  0.0048  1.0000  -16.5985   0.0000   0.2240
  15.800   1.6606   0.01844   0.01443   0.0114  0.0047  1.0000  -16.7666   0.0000   0.2236
  15.900   1.6679   0.01869   0.01470   0.0118  0.0047  1.0000  -16.9334   0.0000   0.2232
  16.000   1.6751   0.01895   0.01497   0.0123  0.0046  1.0000  -17.0983   0.0000   0.2228
  16.100   1.6820   0.01922   0.01526   0.0127  0.0046  1.0000  -17.2613   0.0000   0.2223
  16.200   1.6887   0.01951   0.01556   0.0132  0.0045  1.0000  -17.4220   0.0000   0.2219
  16.300   1.6952   0.01980   0.01588   0.0138  0.0044  1.0000  -17.5802   0.0000   0.2214
  16.400   1.7013   0.02012   0.01621   0.0143  0.0044  1.0000  -17.7356   0.0000   0.2209
  16.500   1.7071   0.02044   0.01655   0.0149  0.0043  1.0000  -17.8878   0.0000   0.2204
  16.600   1.7130   0.02075   0.01688   0.0155  0.0043  1.0000  -18.0477   0.0000   0.2199
  16.700   1.7193   0.02100   0.01714   0.0160  0.0043  1.0000  -18.2160   0.0000   0.2194
  16.800   1.7250   0.02125   0.01741   0.0167  0.0043  1.0000  -18.3789   0.0000   0.2189
  16.900   1.7298   0.02151   0.01769   0.0175  0.0043  1.0000  -18.5328   0.0000   0.2182
  17.000   1.7341   0.02178   0.01797   0.0183  0.0043  1.0000  -18.6823   0.0000   0.2175
  17.100   1.7381   0.02206   0.01827   0.0192  0.0043  1.0000  -18.8299   0.0000   0.2169
  17.200   1.7420   0.02236   0.01858   0.0201  0.0043  1.0000  -18.9763   0.0000   0.2162
  17.300   1.7459   0.02267   0.01891   0.0209  0.0043  1.0000  -19.1217   0.0000   0.2155
  17.400   1.7496   0.02300   0.01926   0.0217  0.0042  1.0000  -19.2660   0.0000   0.2149
  17.500   1.7531   0.02334   0.01962   0.0225  0.0042  1.0000  -19.4090   0.0000   0.2143
  17.600   1.7566   0.02371   0.02000   0.0232  0.0042  1.0000  -19.5506   0.0000   0.2137
  17.700   1.7599   0.02409   0.02041   0.0239  0.0042  1.0000  -19.6906   0.0000   0.2131
  17.800   1.7630   0.02450   0.02083   0.0246  0.0042  1.0000  -19.8291   0.0000   0.2125
  17.900   1.7660   0.02493   0.02128   0.0253  0.0042  1.0000  -19.9655   0.0000   0.2119
  18.000   1.7688   0.02538   0.02176   0.0259  0.0042  1.0000  -20.1004   0.0000   0.2114
  18.100   1.7714   0.02587   0.02226   0.0265  0.0042  1.0000  -20.2330   0.0000   0.2108
  18.200   1.7739   0.02638   0.02280   0.0271  0.0041  1.0000  -20.3635   0.0000   0.2103
  18.300   1.7761   0.02692   0.02336   0.0276  0.0041  1.0000  -20.4920   0.0000   0.2098
  18.400   1.7782   0.02750   0.02396   0.0281  0.0041  1.0000  -20.6176   0.0000   0.2093
  18.500   1.7801   0.02811   0.02460   0.0285  0.0041  1.0000  -20.7411   0.0000   0.2089
  18.600   1.7818   0.02876   0.02527   0.0289  0.0041  1.0000  -20.8614   0.0000   0.2085
  18.700   1.7832   0.02946   0.02599   0.0292  0.0041  1.0000  -20.9785   0.0000   0.2081
  18.800   1.7844   0.03019   0.02675   0.0295  0.0041  1.0000  -21.0930   0.0000   0.2077
  18.900   1.7854   0.03098   0.02757   0.0297  0.0040  1.0000  -21.2038   0.0000   0.2073
  19.000   1.7861   0.03182   0.02843   0.0299  0.0040  1.0000  -21.3103   0.0000   0.2070
  19.100   1.7865   0.03271   0.02935   0.0299  0.0040  1.0000  -21.4133   0.0000   0.2067
  19.200   1.7867   0.03367   0.03034   0.0300  0.0040  1.0000  -21.5119   0.0000   0.2065
  19.300   1.7865   0.03469   0.03139   0.0299  0.0040  1.0000  -21.6050   0.0000   0.2062
  19.400   1.7859   0.03579   0.03251   0.0298  0.0040  1.0000  -21.6928   0.0000   0.2060
  19.500   1.7850   0.03696   0.03371   0.0296  0.0040  1.0000  -21.7754   0.0000   0.2059
  19.600   1.7837   0.03821   0.03499   0.0293  0.0040  1.0000  -21.8521   0.0000   0.2058
  19.700   1.7819   0.03954   0.03637   0.0289  0.0040  1.0000  -21.9207   0.0000   0.2057
  19.800   1.7796   0.04098   0.03784   0.0284  0.0039  1.0000  -21.9817   0.0000   0.2057
  19.900   1.7768   0.04252   0.03941   0.0278  0.0039  1.0000  -22.0351   0.0000   0.2057
  20.000   1.7735   0.04417   0.04109   0.0272  0.0039  1.0000  -22.0792   0.0000   0.2058
  20.100   1.7694   0.04594   0.04291   0.0264  0.0039  1.0000  -22.1117   0.0000   0.2059
  20.200   1.7646   0.04785   0.04485   0.0255  0.0039  1.0000  -22.1330   0.0000   0.2061
  20.300   1.7591   0.04990   0.04695   0.0245  0.0039  1.0000  -22.1417   0.0000   0.2063
  20.400   1.7526   0.05212   0.04921   0.0234  0.0039  1.0000  -22.1354   0.0000   0.2066
  20.500   1.7451   0.05452   0.05165   0.0222  0.0039  1.0000  -22.1114   0.0000   0.2070
  20.600   1.7364   0.05712   0.05430   0.0208  0.0039  1.0000  -22.0695   0.0000   0.2074
  20.700   1.7266   0.05994   0.05717   0.0193  0.0039  1.0000  -22.0071   0.0000   0.2079
  20.800   1.7151   0.06300   0.06028   0.0177  0.0039  1.0000  -21.9195   0.0000   0.2085
  20.900   1.7021   0.06637   0.06371   0.0159  0.0039  1.0000  -21.8043   0.0000   0.2092
  21.000   1.6873   0.07008   0.06748   0.0138  0.0039  1.0000  -21.6578   0.0000   0.2100
  21.100   1.6703   0.07413   0.07160   0.0116  0.0039  1.0000  -21.4746   0.0000   0.2110
  21.200   1.6505   0.07872   0.07626   0.0090  0.0039  1.0000  -21.2430   0.0000   0.2122
  21.300   1.6278   0.08383   0.08144   0.0062  0.0039  1.0000  -20.9591   0.0000   0.2136
  21.400   1.6014   0.08962   0.08732   0.0030  0.0039  1.0000  -20.6091   0.0000   0.2152
  21.500   1.5699   0.09637   0.09416  -0.0008  0.0039  1.0000  -20.1660   0.0000   0.2174
  21.600   1.5310   0.10453   0.10243  -0.0055  0.0040  1.0000  -19.5856   0.0000   0.2202
  21.700   1.4820   0.11467   0.11269  -0.0114  0.0040  1.0000  -18.8102   0.0000   0.2241
  21.800   1.4066   0.13014   0.12836  -0.0209  0.0041  1.0000  -17.5145   0.0000   0.2312
  21.900   1.1637   0.18488   0.18369  -0.0586  0.0043  1.0000  -12.3510   0.0000   0.2683
  22.000   1.1422   0.19227   0.19115  -0.0639  0.0043  1.0000  -11.7850   0.0000   0.2740
  22.100   1.1270   0.19826   0.19718  -0.0681  0.0043  1.0000  -11.3538   0.0000   0.2786
  22.200   1.1160   0.20324   0.20220  -0.0717  0.0043  1.0000  -11.0145   0.0000   0.2825
  22.300   1.1131   0.20598   0.20496  -0.0737  0.0043  1.0000  -10.9052   0.0000   0.2843
  22.400   1.1101   0.20882   0.20781  -0.0758  0.0043  1.0000  -10.7871   0.0000   0.2862
  22.500   1.1038   0.21263   0.21165  -0.0786  0.0042  1.0000  -10.5533   0.0000   0.2891
  22.600   1.1027   0.21495   0.21399  -0.0803  0.0042  1.0000  -10.4829   0.0000   0.2906
  22.700   1.0977   0.21853   0.21759  -0.0829  0.0042  1.0000  -10.2759   0.0000   0.2933
  22.800   1.0967   0.22079   0.21986  -0.0846  0.0042  1.0000  -10.1990   0.0000   0.2948
  22.900   1.0963   0.22289   0.22197  -0.0862  0.0042  1.0000  -10.1428   0.0000   0.2961
  23.000   1.0958   0.22504   0.22414  -0.0878  0.0042  1.0000  -10.0785   0.0000   0.2974
  23.100   1.0923   0.22826   0.22737  -0.0901  0.0041  1.0000  -9.8947   0.0000   0.2998
  23.200   1.0924   0.23024   0.22937  -0.0917  0.0041  1.0000  -9.8449   0.0000   0.3010
  23.300   1.0927   0.23217   0.23130  -0.0932  0.0041  1.0000  -9.8008   0.0000   0.3022
  23.400   1.0928   0.23424   0.23338  -0.0947  0.0040  1.0000  -9.7407   0.0000   0.3035
  23.500   1.0903   0.23724   0.23640  -0.0969  0.0040  1.0000  -9.5739   0.0000   0.3056
  23.600   1.0910   0.23907   0.23824  -0.0983  0.0040  1.0000  -9.5316   0.0000   0.3067
  23.700   1.0919   0.24085   0.24003  -0.0997  0.0039  1.0000  -9.4980   0.0000   0.3077
  23.800   1.0925   0.24277   0.24195  -0.1012  0.0039  1.0000  -9.4470   0.0000   0.3089
  23.900   1.0905   0.24572   0.24491  -0.1034  0.0039  1.0000  -9.2737   0.0000   0.3110
  24.000   1.0915   0.24751   0.24672  -0.1048  0.0038  1.0000  -9.2334   0.0000   0.3120


