xflr5 v6.47

 Calculated polar for: NACA 65(2)-415

 1 1 Reynolds number fixed          Mach number fixed         

 xtrf =   1.000 (top)        1.000 (bottom)
 Mach =   0.000     Re =     1.000 e 6     Ncrit =   9.000

  alpha     CL        CD       CDp       Cm    Top Xtr Bot Xtr   Cpmin    Chinge    XCp    
 ------- -------- --------- --------- -------- ------- ------- -------- --------- ---------
 -20.000  -0.4121   0.20106   0.19947  -0.0083  1.0000  0.0103  -1.4049   0.0000   0.2086
 -19.900  -0.4101   0.20014   0.19855  -0.0090  1.0000  0.0104  -1.4021   0.0000   0.2069
 -19.800  -0.4081   0.19918   0.19759  -0.0097  1.0000  0.0105  -1.4025   0.0000   0.2051
 -19.700  -0.4062   0.19825   0.19665  -0.0104  1.0000  0.0107  -1.4072   0.0000   0.2033
 -19.600  -0.4045   0.19721   0.19561  -0.0111  1.0000  0.0109  -1.4198   0.0000   0.2015
 -19.500  -0.4091   0.19427   0.19266  -0.0126  1.0000  0.0114  -1.6748   0.0000   0.1974
 -19.400  -0.4096   0.19277   0.19116  -0.0136  1.0000  0.0114  -1.7492   0.0000   0.1951
 -19.300  -0.4064   0.19209   0.19048  -0.0140  1.0000  0.0115  -1.7087   0.0000   0.1938
 -19.200  -0.4036   0.19140   0.18979  -0.0145  1.0000  0.0115  -1.6744   0.0000   0.1925
 -19.100  -0.4009   0.19070   0.18909  -0.0150  1.0000  0.0115  -1.6452   0.0000   0.1910
 -19.000  -0.3985   0.18998   0.18837  -0.0156  1.0000  0.0116  -1.6203   0.0000   0.1894
 -18.900  -0.3961   0.18924   0.18762  -0.0162  1.0000  0.0116  -1.5993   0.0000   0.1877
 -18.800  -0.3939   0.18848   0.18686  -0.0168  1.0000  0.0117  -1.5817   0.0000   0.1860
 -18.700  -0.3918   0.18766   0.18604  -0.0174  1.0000  0.0117  -1.5673   0.0000   0.1842
 -18.600  -0.3898   0.18690   0.18527  -0.0180  1.0000  0.0118  -1.5561   0.0000   0.1824
 -16.900  -0.7991   0.09272   0.09059  -0.0573  1.0000  0.0128  -8.7951   0.0000   0.1518
 -16.800  -0.8326   0.08397   0.08170  -0.0628  1.0000  0.0127  -9.2450   0.0000   0.1486
 -16.700  -0.8559   0.07768   0.07529  -0.0669  1.0000  0.0126  -9.5309   0.0000   0.1463
 -16.600  -0.8732   0.07289   0.07040  -0.0700  1.0000  0.0126  -9.7226   0.0000   0.1448
 -16.500  -0.8868   0.06899   0.06641  -0.0724  1.0000  0.0126  -9.8579   0.0000   0.1436
 -16.400  -0.8980   0.06568   0.06302  -0.0744  1.0000  0.0126  -9.9574   0.0000   0.1427
 -16.300  -0.9076   0.06277   0.06004  -0.0762  1.0000  0.0126  -10.0327   0.0000   0.1421
 -16.200  -0.9160   0.06017   0.05736  -0.0776  1.0000  0.0126  -10.0901   0.0000   0.1416
 -16.100  -0.9234   0.05780   0.05492  -0.0789  1.0000  0.0126  -10.1341   0.0000   0.1413
 -16.000  -0.9303   0.05562   0.05267  -0.0799  1.0000  0.0127  -10.1680   0.0000   0.1411
 -15.900  -0.9365   0.05359   0.05057  -0.0808  1.0000  0.0127  -10.1937   0.0000   0.1410
 -15.800  -0.9423   0.05170   0.04861  -0.0816  1.0000  0.0128  -10.2126   0.0000   0.1410
 -15.700  -0.9477   0.04993   0.04677  -0.0823  1.0000  0.0128  -10.2256   0.0000   0.1411
 -15.600  -0.9526   0.04826   0.04503  -0.0828  1.0000  0.0129  -10.2331   0.0000   0.1413
 -15.500  -0.9571   0.04668   0.04338  -0.0833  1.0000  0.0129  -10.2348   0.0000   0.1415
 -15.400  -0.9611   0.04520   0.04182  -0.0837  1.0000  0.0130  -10.2310   0.0000   0.1417
 -15.300  -0.9646   0.04381   0.04035  -0.0840  1.0000  0.0130  -10.2214   0.0000   0.1420
 -15.200  -0.9675   0.04250   0.03896  -0.0842  1.0000  0.0131  -10.2053   0.0000   0.1423
 -15.100  -0.9699   0.04129   0.03768  -0.0844  1.0000  0.0131  -10.1825   0.0000   0.1426
 -15.000  -0.9716   0.04018   0.03649  -0.0845  1.0000  0.0132  -10.1524   0.0000   0.1429
 -14.900  -0.9750   0.03891   0.03516  -0.0845  1.0000  0.0133  -10.1374   0.0000   0.1435
 -14.800  -0.9762   0.03788   0.03411  -0.0844  1.0000  0.0133  -10.0970   0.0000   0.1439
 -14.700  -0.9756   0.03706   0.03327  -0.0843  1.0000  0.0134  -10.0362   0.0000   0.1442
 -14.600  -0.9739   0.03636   0.03255  -0.0842  1.0000  0.0134  -9.9644   0.0000   0.1444
 -14.500  -0.9717   0.03573   0.03191  -0.0841  1.0000  0.0135  -9.8861   0.0000   0.1445
 -14.400  -0.9692   0.03514   0.03132  -0.0839  1.0000  0.0136  -9.8041   0.0000   0.1446
 -14.300  -0.9664   0.03459   0.03075  -0.0838  1.0000  0.0136  -9.7201   0.0000   0.1447
 -14.200  -0.9636   0.03405   0.03020  -0.0836  1.0000  0.0137  -9.6364   0.0000   0.1449
 -14.100  -0.9609   0.03353   0.02966  -0.0834  1.0000  0.0137  -9.5531   0.0000   0.1450
 -14.000  -0.9582   0.03302   0.02913  -0.0832  1.0000  0.0138  -9.4703   0.0000   0.1452
 -13.900  -0.9555   0.03251   0.02860  -0.0829  1.0000  0.0139  -9.3885   0.0000   0.1454
 -13.800  -0.9529   0.03201   0.02808  -0.0826  1.0000  0.0140  -9.3081   0.0000   0.1457
 -13.700  -0.9505   0.03151   0.02755  -0.0823  1.0000  0.0140  -9.2297   0.0000   0.1461
 -13.600  -0.9482   0.03100   0.02702  -0.0819  1.0000  0.0141  -9.1539   0.0000   0.1465
 -13.500  -0.9459   0.03052   0.02651  -0.0814  1.0000  0.0142  -9.0775   0.0000   0.1469
 -13.400  -0.9438   0.03003   0.02600  -0.0810  1.0000  0.0143  -9.0041   0.0000   0.1474
 -13.300  -0.9421   0.02953   0.02546  -0.0804  1.0000  0.0144  -8.9344   0.0000   0.1480
 -13.200  -0.9407   0.02903   0.02492  -0.0798  1.0000  0.0145  -8.8685   0.0000   0.1488
 -13.100  -0.9396   0.02852   0.02437  -0.0790  1.0000  0.0146  -8.8062   0.0000   0.1496
 -13.000  -0.9389   0.02803   0.02383  -0.0782  1.0000  0.0147  -8.7475   0.0000   0.1506
 -12.800  -0.9324   0.02691   0.02259  -0.0776  0.9935  0.0150  -8.6034   0.0000   0.1511
 -12.700  -0.9227   0.02630   0.02188  -0.0786  0.9897  0.0151  -8.4951   0.0000   0.1492
 -12.600  -0.9134   0.02556   0.02105  -0.0795  0.9861  0.0152  -8.3919   0.0000   0.1474
 -12.500  -0.9026   0.02486   0.02035  -0.0805  0.9838  0.0154  -8.2734   0.0000   0.1454
 -12.400  -0.8905   0.02441   0.01989  -0.0817  0.9808  0.0155  -8.1399   0.0000   0.1430
 -12.300  -0.8777   0.02402   0.01950  -0.0829  0.9777  0.0156  -8.0013   0.0000   0.1404
 -12.200  -0.8644   0.02365   0.01911  -0.0841  0.9747  0.0158  -7.8611   0.0000   0.1376
 -12.100  -0.8512   0.02330   0.01873  -0.0854  0.9708  0.0159  -7.7233   0.0000   0.1347
 -12.000  -0.8377   0.02294   0.01834  -0.0867  0.9672  0.0161  -7.5852   0.0000   0.1316
 -11.900  -0.8251   0.02260   0.01797  -0.0877  0.9622  0.0163  -7.4541   0.0000   0.1288
 -11.800  -0.8127   0.02225   0.01757  -0.0887  0.9573  0.0165  -7.3274   0.0000   0.1261
 -11.700  -0.8025   0.02190   0.01717  -0.0892  0.9509  0.0167  -7.2160   0.0000   0.1241
 -11.600  -0.7940   0.02157   0.01677  -0.0893  0.9441  0.0169  -7.1170   0.0000   0.1229
 -11.500  -0.7870   0.02127   0.01638  -0.0891  0.9373  0.0170  -7.0273   0.0000   0.1223
 -11.400  -0.7815   0.02101   0.01604  -0.0886  0.9304  0.0172  -6.9456   0.0000   0.1224
 -11.300  -0.7770   0.02080   0.01575  -0.0878  0.9237  0.0173  -6.8682   0.0000   0.1229
 -11.200  -0.7712   0.02032   0.01521  -0.0873  0.9188  0.0175  -6.7911   0.0000   0.1228
 -11.100  -0.7651   0.01992   0.01480  -0.0867  0.9138  0.0176  -6.7050   0.0000   0.1227
 -10.900  -0.7532   0.01948   0.01432  -0.0856  0.9044  0.0178  -6.5243   0.0000   0.1227
 -10.800  -0.7464   0.01929   0.01410  -0.0851  0.9002  0.0180  -6.4293   0.0000   0.1225
 -10.700  -0.7392   0.01910   0.01389  -0.0847  0.8961  0.0181  -6.3334   0.0000   0.1220
 -10.600  -0.7320   0.01892   0.01368  -0.0842  0.8921  0.0182  -6.2377   0.0000   0.1216
 -10.500  -0.7245   0.01874   0.01346  -0.0838  0.8886  0.0184  -6.1421   0.0000   0.1210
 -10.400  -0.7169   0.01856   0.01325  -0.0835  0.8847  0.0186  -6.0464   0.0000   0.1204
 -10.300  -0.7092   0.01837   0.01303  -0.0831  0.8811  0.0187  -5.9515   0.0000   0.1198
 -10.200  -0.7013   0.01818   0.01280  -0.0828  0.8778  0.0189  -5.8603   0.0000   0.1190
 -10.100  -0.6934   0.01798   0.01256  -0.0824  0.8742  0.0191  -5.7723   0.0000   0.1183
 -10.000  -0.6853   0.01779   0.01231  -0.0821  0.8709  0.0193  -5.6853   0.0000   0.1175
  -9.900  -0.6772   0.01762   0.01208  -0.0817  0.8678  0.0195  -5.5982   0.0000   0.1166
  -9.800  -0.6688   0.01747   0.01188  -0.0814  0.8644  0.0197  -5.5099   0.0000   0.1156
  -9.700  -0.6611   0.01708   0.01145  -0.0811  0.8613  0.0198  -5.4319   0.0000   0.1148
  -9.600  -0.6534   0.01672   0.01108  -0.0808  0.8585  0.0200  -5.3494   0.0000   0.1140
  -9.500  -0.6451   0.01648   0.01084  -0.0805  0.8553  0.0202  -5.2600   0.0000   0.1129
  -9.400  -0.6366   0.01629   0.01064  -0.0802  0.8522  0.0204  -5.1687   0.0000   0.1117
  -9.300  -0.6280   0.01613   0.01046  -0.0800  0.8494  0.0205  -5.0768   0.0000   0.1104
  -9.200  -0.6191   0.01598   0.01029  -0.0798  0.8465  0.0207  -4.9846   0.0000   0.1090
  -9.100  -0.6101   0.01582   0.01012  -0.0796  0.8434  0.0209  -4.8935   0.0000   0.1075
  -9.000  -0.6012   0.01567   0.00994  -0.0794  0.8407  0.0211  -4.8038   0.0000   0.1060
  -8.900  -0.5922   0.01551   0.00975  -0.0791  0.8382  0.0214  -4.7153   0.0000   0.1044
  -8.800  -0.5831   0.01534   0.00956  -0.0789  0.8352  0.0216  -4.6279   0.0000   0.1027
  -8.700  -0.5740   0.01517   0.00936  -0.0787  0.8324  0.0218  -4.5452   0.0000   0.1010
  -8.600  -0.5649   0.01501   0.00916  -0.0785  0.8298  0.0220  -4.4646   0.0000   0.0992
  -8.500  -0.5556   0.01486   0.00897  -0.0783  0.8273  0.0221  -4.3835   0.0000   0.0973
  -8.400  -0.5460   0.01473   0.00880  -0.0782  0.8245  0.0223  -4.3011   0.0000   0.0951
  -8.300  -0.5379   0.01443   0.00848  -0.0779  0.8217  0.0225  -4.2296   0.0000   0.0936
  -8.200  -0.5300   0.01413   0.00817  -0.0775  0.8193  0.0227  -4.1563   0.0000   0.0921
  -8.100  -0.5210   0.01393   0.00797  -0.0773  0.8168  0.0230  -4.0756   0.0000   0.0900
  -8.000  -0.5117   0.01377   0.00781  -0.0772  0.8141  0.0232  -3.9930   0.0000   0.0877
  -7.900  -0.5023   0.01362   0.00766  -0.0770  0.8115  0.0234  -3.9110   0.0000   0.0852
  -7.800  -0.4928   0.01349   0.00749  -0.0769  0.8093  0.0236  -3.8304   0.0000   0.0826
  -7.700  -0.4833   0.01334   0.00733  -0.0767  0.8068  0.0238  -3.7520   0.0000   0.0798
  -7.600  -0.4737   0.01318   0.00716  -0.0766  0.8042  0.0241  -3.6774   0.0000   0.0769
  -7.500  -0.4641   0.01304   0.00700  -0.0764  0.8017  0.0243  -3.6036   0.0000   0.0739
  -7.400  -0.4545   0.01290   0.00684  -0.0763  0.7995  0.0245  -3.5298   0.0000   0.0708
  -7.300  -0.4447   0.01278   0.00669  -0.0762  0.7973  0.0248  -3.4556   0.0000   0.0673
  -7.200  -0.4346   0.01266   0.00655  -0.0761  0.7948  0.0250  -3.3812   0.0000   0.0635
  -7.100  -0.4244   0.01256   0.00642  -0.0760  0.7924  0.0252  -3.3067   0.0000   0.0595
  -7.000  -0.4154   0.01235   0.00619  -0.0758  0.7902  0.0254  -3.2402   0.0000   0.0561
  -6.900  -0.4068   0.01210   0.00592  -0.0756  0.7881  0.0257  -3.1772   0.0000   0.0528
  -6.800  -0.3972   0.01191   0.00574  -0.0755  0.7856  0.0260  -3.1106   0.0000   0.0486
  -6.700  -0.3874   0.01176   0.00558  -0.0754  0.7832  0.0262  -3.0426   0.0000   0.0440
  -6.600  -0.3775   0.01164   0.00544  -0.0753  0.7810  0.0265  -2.9744   0.0000   0.0391
  -6.500  -0.3674   0.01153   0.00531  -0.0752  0.7791  0.0268  -2.9062   0.0000   0.0338
  -6.400  -0.3571   0.01141   0.00519  -0.0752  0.7769  0.0271  -2.8380   0.0000   0.0280
  -6.300  -0.3468   0.01130   0.00507  -0.0752  0.7746  0.0274  -2.7705   0.0000   0.0217
  -6.200  -0.3365   0.01119   0.00494  -0.0751  0.7724  0.0278  -2.7060   0.0000   0.0151
  -6.100  -0.3262   0.01109   0.00482  -0.0751  0.7704  0.0281  -2.6441   0.0000   0.0081
  -5.900  -0.3051   0.01091   0.00460  -0.0750  0.7663  0.0285  -2.5206   0.0000  -0.0078
  -5.800  -0.2955   0.01069   0.00437  -0.0749  0.7641  0.0290  -2.4655   0.0000  -0.0155
  -5.700  -0.2854   0.01054   0.00422  -0.0749  0.7620  0.0294  -2.4060   0.0000  -0.0245
  -5.600  -0.2750   0.01044   0.00410  -0.0748  0.7601  0.0298  -2.3470   0.0000  -0.0344
  -5.500  -0.2645   0.01034   0.00399  -0.0748  0.7583  0.0302  -2.2898   0.0000  -0.0454
  -5.400  -0.2538   0.01025   0.00389  -0.0749  0.7562  0.0307  -2.2324   0.0000  -0.0576
  -5.300  -0.2430   0.01016   0.00380  -0.0749  0.7541  0.0313  -2.1756   0.0000  -0.0710
  -5.200  -0.2323   0.01008   0.00370  -0.0749  0.7521  0.0318  -2.1194   0.0000  -0.0857
  -5.100  -0.2214   0.01002   0.00362  -0.0749  0.7503  0.0322  -2.0635   0.0000  -0.1018
  -5.000  -0.2112   0.00987   0.00346  -0.0749  0.7486  0.0330  -2.0121   0.0000  -0.1183
  -4.900  -0.2004   0.00976   0.00335  -0.0749  0.7466  0.0337  -1.9585   0.0000  -0.1378
  -4.800  -0.1896   0.00967   0.00326  -0.0750  0.7445  0.0345  -1.9071   0.0000  -0.1599
  -4.700  -0.1787   0.00960   0.00318  -0.0750  0.7426  0.0354  -1.8564   0.0000  -0.1847
  -4.600  -0.1677   0.00954   0.00310  -0.0751  0.7408  0.0362  -1.8061   0.0000  -0.2129
  -4.500  -0.1571   0.00943   0.00298  -0.0751  0.7392  0.0375  -1.7581   0.0000  -0.2438
  -4.400  -0.1462   0.00934   0.00290  -0.0751  0.7374  0.0390  -1.7080   0.0000  -0.2806
  -4.300  -0.1351   0.00927   0.00282  -0.0752  0.7355  0.0406  -1.6580   0.0000  -0.3241
  -4.200  -0.1242   0.00917   0.00273  -0.0753  0.7336  0.0430  -1.6095   0.0000  -0.3742
  -4.100  -0.1133   0.00909   0.00266  -0.0753  0.7318  0.0460  -1.5606   0.0000  -0.4343
  -4.000  -0.1025   0.00898   0.00257  -0.0753  0.7302  0.0514  -1.5128   0.0000  -0.5060
  -3.900  -0.0919   0.00885   0.00248  -0.0754  0.7286  0.0630  -1.4657   0.0000  -0.5930
  -3.800  -0.0815   0.00864   0.00238  -0.0755  0.7268  0.0870  -1.4200   0.0000  -0.7011
  -3.700  -0.0714   0.00837   0.00226  -0.0755  0.7249  0.1257  -1.3772   0.0000  -0.8361
  -3.600  -0.0614   0.00808   0.00214  -0.0756  0.7231  0.1722  -1.3345   0.0000  -1.0135
  -3.500  -0.0515   0.00775   0.00201  -0.0757  0.7215  0.2280  -1.2921   0.0000  -1.2563
  -3.400  -0.0417   0.00739   0.00187  -0.0759  0.7200  0.2919  -1.2499   0.0000  -1.6117
  -3.300  -0.0320   0.00697   0.00172  -0.0760  0.7185  0.3663  -1.2081   0.0000  -2.1791
  -3.200  -0.0222   0.00653   0.00159  -0.0762  0.7167  0.4499  -1.1660   0.0000  -3.2625
  -3.100  -0.0114   0.00631   0.00154  -0.0764  0.7150  0.4999  -1.1216   0.0000  -6.5850
  -3.000  -0.0002   0.00622   0.00152  -0.0765  0.7133  0.5256  -1.0763   0.0000  -480.3784
  -2.900   0.0112   0.00618   0.00151  -0.0766  0.7118  0.5417  -1.0310   0.0000   7.1977
  -2.800   0.0227   0.00616   0.00150  -0.0767  0.7103  0.5535  -0.9859   0.0000   3.6936
  -2.700   0.0342   0.00615   0.00149  -0.0769  0.7089  0.5625  -0.9412   0.0000   2.5369
  -2.600   0.0458   0.00613   0.00148  -0.0770  0.7073  0.5702  -0.8966   0.0000   1.9574
  -2.500   0.0575   0.00612   0.00147  -0.0772  0.7056  0.5772  -0.8525   0.0000   1.6131
  -2.400   0.0691   0.00611   0.00147  -0.0773  0.7040  0.5831  -0.8089   0.0000   1.3854
  -2.300   0.0807   0.00611   0.00146  -0.0774  0.7025  0.5887  -0.7656   0.0000   1.2226
  -2.200   0.0923   0.00611   0.00146  -0.0775  0.7011  0.5941  -0.7247   0.0000   1.1016
  -2.100   0.1038   0.00612   0.00146  -0.0777  0.6998  0.6008  -0.6849   0.0000   1.0074
  -2.000   0.1154   0.00613   0.00146  -0.0778  0.6983  0.6087  -0.6453   0.0000   0.9317
  -1.900   0.1270   0.00612   0.00148  -0.0779  0.6967  0.6166  -0.6062   0.0000   0.8700
  -1.800   0.1386   0.00612   0.00150  -0.0780  0.6952  0.6240  -0.5836   0.0000   0.8187
  -1.700   0.1502   0.00613   0.00151  -0.0782  0.6937  0.6308  -0.5891   0.0000   0.7751
  -1.600   0.1618   0.00615   0.00153  -0.0783  0.6922  0.6374  -0.5947   0.0000   0.7377
  -1.500   0.1733   0.00617   0.00154  -0.0784  0.6909  0.6424  -0.6004   0.0000   0.7056
  -1.400   0.1849   0.00620   0.00156  -0.0785  0.6897  0.6469  -0.6061   0.0000   0.6773
  -1.300   0.1965   0.00621   0.00156  -0.0786  0.6883  0.6501  -0.6117   0.0000   0.6523
  -1.200   0.2082   0.00620   0.00157  -0.0787  0.6868  0.6524  -0.6174   0.0000   0.6302
  -1.100   0.2198   0.00621   0.00157  -0.0789  0.6853  0.6542  -0.6231   0.0000   0.6104
  -1.000   0.2315   0.00621   0.00157  -0.0790  0.6838  0.6557  -0.6288   0.0000   0.5926
  -0.900   0.2432   0.00622   0.00156  -0.0792  0.6825  0.6572  -0.6345   0.0000   0.5765
  -0.800   0.2549   0.00624   0.00156  -0.0794  0.6812  0.6587  -0.6402   0.0000   0.5619
  -0.700   0.2664   0.00625   0.00155  -0.0795  0.6800  0.6599  -0.6459   0.0000   0.5486
  -0.600   0.2781   0.00625   0.00156  -0.0796  0.6787  0.6611  -0.6516   0.0000   0.5364
  -0.500   0.2897   0.00624   0.00156  -0.0798  0.6772  0.6623  -0.6574   0.0000   0.5252
  -0.400   0.3014   0.00624   0.00157  -0.0799  0.6758  0.6637  -0.6632   0.0000   0.5148
  -0.300   0.3131   0.00625   0.00157  -0.0801  0.6744  0.6651  -0.6691   0.0000   0.5052
  -0.200   0.3247   0.00626   0.00157  -0.0802  0.6731  0.6666  -0.6749   0.0000   0.4963
  -0.100   0.3364   0.00627   0.00157  -0.0804  0.6718  0.6681  -0.6807   0.0000   0.4880
   0.000   0.3480   0.00629   0.00157  -0.0805  0.6706  0.6694  -0.6866   0.0000   0.4803
   0.100   0.3596   0.00630   0.00158  -0.0807  0.6694  0.6706  -0.6923   0.0000   0.4730
   0.200   0.3712   0.00630   0.00159  -0.0808  0.6680  0.6719  -0.6982   0.0000   0.4662
   0.300   0.3829   0.00630   0.00160  -0.0809  0.6666  0.6732  -0.7041   0.0000   0.4599
   0.400   0.3945   0.00630   0.00161  -0.0811  0.6653  0.6746  -0.7100   0.0000   0.4539
   0.500   0.4061   0.00631   0.00162  -0.0812  0.6639  0.6761  -0.7160   0.0000   0.4482
   0.600   0.4178   0.00633   0.00163  -0.0814  0.6626  0.6776  -0.7220   0.0000   0.4429
   0.700   0.4295   0.00635   0.00164  -0.0816  0.6615  0.6792  -0.7279   0.0000   0.4378
   0.800   0.4410   0.00636   0.00165  -0.0817  0.6603  0.6804  -0.7338   0.0000   0.4330
   0.900   0.4526   0.00637   0.00166  -0.0818  0.6591  0.6817  -0.7397   0.0000   0.4284
   1.000   0.4642   0.00637   0.00168  -0.0820  0.6577  0.6830  -0.7458   0.0000   0.4241
   1.100   0.4758   0.00638   0.00170  -0.0821  0.6563  0.6845  -0.7518   0.0000   0.4200
   1.200   0.4874   0.00639   0.00171  -0.0823  0.6550  0.6860  -0.7579   0.0000   0.4161
   1.300   0.4990   0.00640   0.00173  -0.0824  0.6537  0.6876  -0.7640   0.0000   0.4123
   1.400   0.5107   0.00642   0.00174  -0.0826  0.6524  0.6892  -0.7701   0.0000   0.4088
   1.500   0.5222   0.00644   0.00176  -0.0827  0.6513  0.6905  -0.7762   0.0000   0.4053
   1.600   0.5337   0.00646   0.00178  -0.0828  0.6501  0.6919  -0.7822   0.0000   0.4020
   1.700   0.5453   0.00646   0.00180  -0.0829  0.6488  0.6933  -0.7884   0.0000   0.3989
   1.800   0.5568   0.00647   0.00182  -0.0831  0.6472  0.6949  -0.7946   0.0000   0.3959
   1.900   0.5684   0.00647   0.00184  -0.0832  0.6454  0.6965  -0.8008   0.0000   0.3930
   2.000   0.5799   0.00649   0.00186  -0.0833  0.6436  0.6981  -0.8070   0.0000   0.3902
   2.100   0.5914   0.00651   0.00187  -0.0835  0.6418  0.6998  -0.8133   0.0000   0.3875
   2.200   0.6027   0.00653   0.00189  -0.0835  0.6399  0.7012  -0.8195   0.0000   0.3849
   2.300   0.6141   0.00652   0.00191  -0.0836  0.6376  0.7026  -0.8257   0.0000   0.3824
   2.400   0.6255   0.00653   0.00193  -0.0837  0.6353  0.7042  -0.8320   0.0000   0.3799
   2.500   0.6369   0.00654   0.00195  -0.0838  0.6332  0.7059  -0.8384   0.0000   0.3776
   2.600   0.6482   0.00657   0.00197  -0.0839  0.6311  0.7076  -0.8448   0.0000   0.3753
   2.700   0.6596   0.00658   0.00199  -0.0840  0.6286  0.7094  -0.8702   0.0000   0.3731
   2.800   0.6709   0.00658   0.00201  -0.0841  0.6254  0.7109  -0.9126   0.0000   0.3710
   2.900   0.6820   0.00660   0.00202  -0.0841  0.6222  0.7124  -0.9550   0.0000   0.3689
   3.000   0.6931   0.00661   0.00204  -0.0842  0.6187  0.7140  -1.0004   0.0000   0.3669
   3.100   0.7043   0.00661   0.00206  -0.0842  0.6149  0.7158  -1.0479   0.0000   0.3649
   3.200   0.7153   0.00665   0.00208  -0.0842  0.6113  0.7176  -1.0970   0.0000   0.3630
   3.300   0.7266   0.00665   0.00210  -0.0843  0.6065  0.7195  -1.1497   0.0000   0.3612
   3.400   0.7373   0.00668   0.00211  -0.0843  0.6016  0.7212  -1.2019   0.0000   0.3593
   3.500   0.7484   0.00668   0.00214  -0.0843  0.5958  0.7227  -1.2553   0.0000   0.3576
   3.600   0.7591   0.00672   0.00217  -0.0842  0.5906  0.7244  -1.3086   0.0000   0.3558
   3.700   0.7701   0.00674   0.00219  -0.0843  0.5849  0.7263  -1.3632   0.0000   0.3542
   3.800   0.7810   0.00677   0.00222  -0.0843  0.5793  0.7282  -1.4180   0.0000   0.3526
   3.900   0.7919   0.00681   0.00225  -0.0843  0.5733  0.7302  -1.4732   0.0000   0.3510
   4.000   0.8028   0.00684   0.00229  -0.0843  0.5675  0.7319  -1.5293   0.0000   0.3494
   4.100   0.8134   0.00688   0.00233  -0.0842  0.5619  0.7336  -1.5851   0.0000   0.3479
   4.200   0.8242   0.00692   0.00237  -0.0842  0.5553  0.7355  -1.6421   0.0000   0.3464
   4.300   0.8349   0.00697   0.00241  -0.0842  0.5481  0.7375  -1.6992   0.0000   0.3450
   4.400   0.8454   0.00703   0.00245  -0.0841  0.5399  0.7396  -1.7573   0.0000   0.3436
   4.500   0.8557   0.00710   0.00250  -0.0840  0.5301  0.7415  -1.8175   0.0000   0.3421
   4.600   0.8656   0.00719   0.00256  -0.0839  0.5181  0.7433  -1.8772   0.0000   0.3407
   4.700   0.8750   0.00730   0.00264  -0.0836  0.5034  0.7452  -1.9361   0.0000   0.3393
   4.800   0.8837   0.00747   0.00273  -0.0832  0.4828  0.7473  -1.9935   0.0000   0.3378
   4.900   0.8910   0.00773   0.00286  -0.0826  0.4531  0.7496  -2.0472   0.0000   0.3363
   5.000   0.8964   0.00812   0.00305  -0.0817  0.4129  0.7518  -2.0957   0.0000   0.3346
   5.100   0.9007   0.00857   0.00330  -0.0807  0.3701  0.7537  -2.1410   0.0000   0.3328
   5.200   0.9053   0.00901   0.00356  -0.0797  0.3309  0.7559  -2.1873   0.0000   0.3312
   5.300   0.9100   0.00943   0.00380  -0.0787  0.2937  0.7582  -2.2342   0.0000   0.3296
   5.400   0.9148   0.00985   0.00404  -0.0778  0.2578  0.7607  -2.2816   0.0000   0.3280
   5.500   0.9196   0.01025   0.00429  -0.0768  0.2248  0.7628  -2.3290   0.0000   0.3264
   5.600   0.9246   0.01063   0.00452  -0.0759  0.1950  0.7650  -2.3773   0.0000   0.3248
   5.700   0.9297   0.01099   0.00476  -0.0750  0.1674  0.7673  -2.4260   0.0000   0.3233
   5.800   0.9347   0.01135   0.00498  -0.0741  0.1416  0.7699  -2.4749   0.0000   0.3218
   5.900   0.9398   0.01171   0.00522  -0.0732  0.1177  0.7724  -2.5239   0.0000   0.3202
   6.000   0.9450   0.01203   0.00544  -0.0723  0.0971  0.7747  -2.5736   0.0000   0.3187
   6.100   0.9504   0.01233   0.00566  -0.0714  0.0799  0.7772  -2.6244   0.0000   0.3173
   6.200   0.9562   0.01262   0.00587  -0.0706  0.0656  0.7799  -2.6763   0.0000   0.3159
   6.300   0.9621   0.01289   0.00608  -0.0698  0.0537  0.7826  -2.7288   0.0000   0.3145
   6.400   0.9686   0.01311   0.00627  -0.0691  0.0457  0.7849  -2.7832   0.0000   0.3132
   6.500   0.9754   0.01331   0.00645  -0.0685  0.0407  0.7875  -2.8393   0.0000   0.3119
   6.600   0.9821   0.01349   0.00662  -0.0678  0.0375  0.7904  -2.8951   0.0000   0.3106
   6.700   0.9886   0.01365   0.00678  -0.0670  0.0351  0.7931  -2.9508   0.0000   0.3092
   6.800   0.9949   0.01381   0.00694  -0.0663  0.0333  0.7956  -3.0056   0.0000   0.3079
   6.900   1.0016   0.01396   0.00710  -0.0656  0.0318  0.7985  -3.0623   0.0000   0.3066
   7.000   1.0078   0.01415   0.00729  -0.0648  0.0305  0.8016  -3.1176   0.0000   0.3053
   7.100   1.0145   0.01431   0.00747  -0.0641  0.0294  0.8043  -3.1740   0.0000   0.3041
   7.200   1.0214   0.01447   0.00764  -0.0634  0.0284  0.8072  -3.2323   0.0000   0.3029
   7.300   1.0279   0.01465   0.00783  -0.0627  0.0274  0.8105  -3.2896   0.0000   0.3017
   7.400   1.0332   0.01489   0.00807  -0.0619  0.0264  0.8136  -3.3417   0.0000   0.3004
   7.500   1.0404   0.01503   0.00824  -0.0613  0.0258  0.8166  -3.4015   0.0000   0.2993
   7.600   1.0473   0.01520   0.00842  -0.0607  0.0251  0.8199  -3.4644   0.0000   0.2982
   7.700   1.0539   0.01539   0.00862  -0.0601  0.0244  0.8232  -3.5269   0.0000   0.2971
   7.800   1.0595   0.01561   0.00886  -0.0593  0.0238  0.8264  -3.5860   0.0000   0.2960
   7.900   1.0647   0.01587   0.00913  -0.0584  0.0232  0.8300  -3.6416   0.0000   0.2948
   8.000   1.0717   0.01604   0.00932  -0.0579  0.0227  0.8334  -3.7055   0.0000   0.2938
   8.100   1.0782   0.01622   0.00954  -0.0572  0.0223  0.8368  -3.7681   0.0000   0.2927
   8.200   1.0846   0.01642   0.00976  -0.0566  0.0218  0.8407  -3.8311   0.0000   0.2917
   8.300   1.0907   0.01663   0.00999  -0.0560  0.0214  0.8443  -3.8938   0.0000   0.2907
   8.400   1.0963   0.01687   0.01025  -0.0552  0.0210  0.8482  -3.9543   0.0000   0.2896
   8.500   1.1009   0.01718   0.01057  -0.0544  0.0206  0.8525  -4.0098   0.0000   0.2885
   8.600   1.1059   0.01745   0.01087  -0.0536  0.0203  0.8564  -4.0665   0.0000   0.2874
   8.700   1.1124   0.01766   0.01110  -0.0530  0.0200  0.8608  -4.1298   0.0000   0.2865
   8.800   1.1184   0.01788   0.01136  -0.0524  0.0197  0.8650  -4.1919   0.0000   0.2855
   8.900   1.1242   0.01811   0.01162  -0.0517  0.0194  0.8697  -4.2539   0.0000   0.2845
   9.000   1.1299   0.01836   0.01189  -0.0511  0.0192  0.8743  -4.3159   0.0000   0.2836
   9.100   1.1354   0.01861   0.01217  -0.0504  0.0189  0.8795  -4.3780   0.0000   0.2826
   9.200   1.1407   0.01887   0.01246  -0.0497  0.0187  0.8846  -4.4397   0.0000   0.2816
   9.300   1.1456   0.01916   0.01277  -0.0489  0.0185  0.8905  -4.5001   0.0000   0.2806
   9.400   1.1496   0.01948   0.01312  -0.0480  0.0182  0.8966  -4.5561   0.0000   0.2796
   9.500   1.1524   0.01988   0.01355  -0.0470  0.0180  0.9034  -4.6054   0.0000   0.2784
   9.600   1.1559   0.02024   0.01395  -0.0461  0.0178  0.9109  -4.6571   0.0000   0.2774
   9.700   1.1609   0.02049   0.01424  -0.0454  0.0177  0.9187  -4.7170   0.0000   0.2764
   9.800   1.1654   0.02075   0.01454  -0.0445  0.0175  0.9275  -4.7754   0.0000   0.2754
   9.900   1.1694   0.02100   0.01484  -0.0436  0.0174  0.9385  -4.8320   0.0000   0.2743
  10.000   1.1738   0.02124   0.01514  -0.0428  0.0172  0.9565  -4.8908   0.0000   0.2733
  10.200   1.1877   0.02188   0.01583  -0.0424  0.0168  1.0000  -5.0293   0.0000   0.2723
  10.300   1.1935   0.02223   0.01619  -0.0421  0.0166  1.0000  -5.0959   0.0000   0.2716
  10.400   1.1992   0.02260   0.01657  -0.0416  0.0164  1.0000  -5.1658   0.0000   0.2710
  10.500   1.2047   0.02298   0.01696  -0.0412  0.0163  1.0000  -5.2349   0.0000   0.2703
  10.600   1.2098   0.02339   0.01737  -0.0408  0.0162  1.0000  -5.3029   0.0000   0.2696
  10.700   1.2146   0.02383   0.01782  -0.0403  0.0160  1.0000  -5.3690   0.0000   0.2689
  10.800   1.2186   0.02432   0.01832  -0.0398  0.0159  1.0000  -5.4312   0.0000   0.2682
  10.900   1.2217   0.02488   0.01889  -0.0391  0.0158  1.0000  -5.4873   0.0000   0.2675
  11.000   1.2234   0.02555   0.01958  -0.0384  0.0156  1.0000  -5.5343   0.0000   0.2666
  11.100   1.2287   0.02597   0.02002  -0.0380  0.0156  1.0000  -5.6015   0.0000   0.2660
  11.200   1.2340   0.02639   0.02046  -0.0376  0.0155  1.0000  -5.6694   0.0000   0.2654
  11.300   1.2391   0.02682   0.02092  -0.0372  0.0154  1.0000  -5.7365   0.0000   0.2648
  11.400   1.2440   0.02727   0.02139  -0.0368  0.0153  1.0000  -5.8026   0.0000   0.2642
  11.500   1.2487   0.02774   0.02188  -0.0364  0.0152  1.0000  -5.8682   0.0000   0.2636
  11.600   1.2534   0.02821   0.02237  -0.0360  0.0151  1.0000  -5.9337   0.0000   0.2630
  11.700   1.2580   0.02870   0.02288  -0.0356  0.0150  1.0000  -5.9987   0.0000   0.2624
  11.800   1.2624   0.02920   0.02340  -0.0352  0.0149  1.0000  -6.0639   0.0000   0.2618
  11.900   1.2668   0.02971   0.02393  -0.0348  0.0148  1.0000  -6.1290   0.0000   0.2612
  12.000   1.2712   0.03022   0.02447  -0.0344  0.0147  1.0000  -6.1942   0.0000   0.2606
  12.100   1.2755   0.03074   0.02500  -0.0340  0.0146  1.0000  -6.2596   0.0000   0.2600
  12.200   1.2797   0.03127   0.02555  -0.0336  0.0145  1.0000  -6.3250   0.0000   0.2595
  12.300   1.2839   0.03181   0.02611  -0.0332  0.0144  1.0000  -6.3909   0.0000   0.2589
  12.400   1.2880   0.03236   0.02667  -0.0329  0.0143  1.0000  -6.4567   0.0000   0.2583
  12.500   1.2921   0.03291   0.02724  -0.0325  0.0143  1.0000  -6.5240   0.0000   0.2578
  12.600   1.2962   0.03346   0.02780  -0.0322  0.0142  1.0000  -6.5949   0.0000   0.2573
  12.700   1.3001   0.03403   0.02839  -0.0318  0.0141  1.0000  -6.6656   0.0000   0.2568
  12.800   1.3040   0.03461   0.02898  -0.0315  0.0140  1.0000  -6.7360   0.0000   0.2562
  12.900   1.3075   0.03523   0.02961  -0.0311  0.0139  1.0000  -6.8049   0.0000   0.2557
  13.000   1.3107   0.03588   0.03027  -0.0308  0.0139  1.0000  -6.8713   0.0000   0.2552
  13.100   1.3133   0.03658   0.03099  -0.0304  0.0138  1.0000  -6.9338   0.0000   0.2547
  13.200   1.3152   0.03735   0.03178  -0.0299  0.0137  1.0000  -6.9902   0.0000   0.2541
  13.300   1.3164   0.03821   0.03265  -0.0294  0.0136  1.0000  -7.0389   0.0000   0.2535
  13.400   1.3195   0.03891   0.03337  -0.0291  0.0135  1.0000  -7.1007   0.0000   0.2530
  13.500   1.3235   0.03951   0.03401  -0.0288  0.0135  1.0000  -7.1702   0.0000   0.2525
  13.600   1.3275   0.04014   0.03467  -0.0285  0.0134  1.0000  -7.2390   0.0000   0.2521
  13.700   1.3312   0.04078   0.03534  -0.0283  0.0134  1.0000  -7.3067   0.0000   0.2516
  13.800   1.3348   0.04144   0.03603  -0.0280  0.0133  1.0000  -7.3736   0.0000   0.2512
  13.900   1.3384   0.04211   0.03674  -0.0278  0.0133  1.0000  -7.4402   0.0000   0.2508
  14.000   1.3418   0.04281   0.03746  -0.0275  0.0132  1.0000  -7.5060   0.0000   0.2503
  14.100   1.3452   0.04351   0.03820  -0.0273  0.0132  1.0000  -7.5715   0.0000   0.2499
  14.200   1.3485   0.04422   0.03894  -0.0270  0.0131  1.0000  -7.6370   0.0000   0.2495
  14.300   1.3517   0.04496   0.03971  -0.0268  0.0131  1.0000  -7.7017   0.0000   0.2491
  14.400   1.3548   0.04570   0.04048  -0.0266  0.0130  1.0000  -7.7664   0.0000   0.2487
  14.500   1.3579   0.04645   0.04126  -0.0264  0.0129  1.0000  -7.8327   0.0000   0.2483
  14.600   1.3609   0.04722   0.04206  -0.0262  0.0129  1.0000  -7.9007   0.0000   0.2479
  14.700   1.3638   0.04799   0.04286  -0.0260  0.0128  1.0000  -7.9687   0.0000   0.2475
  14.800   1.3668   0.04878   0.04368  -0.0258  0.0128  1.0000  -8.0370   0.0000   0.2471
  14.900   1.3696   0.04958   0.04451  -0.0257  0.0127  1.0000  -8.1048   0.0000   0.2468
  15.000   1.3724   0.05040   0.04536  -0.0255  0.0126  1.0000  -8.1730   0.0000   0.2464
  15.100   1.3751   0.05122   0.04622  -0.0254  0.0126  1.0000  -8.2412   0.0000   0.2461
  15.200   1.3777   0.05206   0.04709  -0.0253  0.0125  1.0000  -8.3094   0.0000   0.2458
  15.300   1.3803   0.05291   0.04796  -0.0252  0.0125  1.0000  -8.3782   0.0000   0.2455
  15.400   1.3827   0.05378   0.04886  -0.0251  0.0124  1.0000  -8.4468   0.0000   0.2452
  15.500   1.3852   0.05466   0.04977  -0.0251  0.0123  1.0000  -8.5156   0.0000   0.2449
  15.600   1.3876   0.05555   0.05068  -0.0250  0.0123  1.0000  -8.5847   0.0000   0.2446
  15.700   1.3899   0.05646   0.05162  -0.0250  0.0122  1.0000  -8.6533   0.0000   0.2443
  15.800   1.3921   0.05738   0.05256  -0.0250  0.0122  1.0000  -8.7218   0.0000   0.2441
  15.900   1.3942   0.05832   0.05352  -0.0250  0.0121  1.0000  -8.7895   0.0000   0.2438
  16.000   1.3962   0.05928   0.05451  -0.0249  0.0121  1.0000  -8.8560   0.0000   0.2435
  16.100   1.3981   0.06025   0.05550  -0.0249  0.0120  1.0000  -8.9219   0.0000   0.2433
  16.200   1.3998   0.06125   0.05653  -0.0249  0.0120  1.0000  -8.9856   0.0000   0.2431
  16.300   1.4014   0.06227   0.05757  -0.0249  0.0119  1.0000  -9.0480   0.0000   0.2428
  16.400   1.4030   0.06331   0.05863  -0.0249  0.0119  1.0000  -9.1091   0.0000   0.2426
  16.500   1.4043   0.06438   0.05972  -0.0249  0.0119  1.0000  -9.1671   0.0000   0.2423
  16.600   1.4054   0.06548   0.06084  -0.0249  0.0118  1.0000  -9.2235   0.0000   0.2421
  16.700   1.4061   0.06662   0.06201  -0.0247  0.0117  1.0000  -9.2751   0.0000   0.2418
  16.800   1.4064   0.06785   0.06329  -0.0247  0.0117  1.0000  -9.3213   0.0000   0.2415
  16.900   1.4064   0.06914   0.06463  -0.0249  0.0117  1.0000  -9.3720   0.0000   0.2414
  17.000   1.4064   0.07045   0.06600  -0.0251  0.0117  1.0000  -9.4217   0.0000   0.2413
  17.100   1.4062   0.07181   0.06741  -0.0253  0.0116  1.0000  -9.4692   0.0000   0.2412
  17.200   1.4059   0.07319   0.06885  -0.0256  0.0116  1.0000  -9.5152   0.0000   0.2412
  17.300   1.4053   0.07462   0.07034  -0.0258  0.0116  1.0000  -9.5591   0.0000   0.2411
  17.400   1.4046   0.07608   0.07186  -0.0261  0.0115  1.0000  -9.6010   0.0000   0.2411
  17.500   1.4037   0.07758   0.07341  -0.0265  0.0115  1.0000  -9.6411   0.0000   0.2411
  17.600   1.4025   0.07913   0.07502  -0.0268  0.0115  1.0000  -9.6788   0.0000   0.2412
  17.700   1.4012   0.08072   0.07667  -0.0272  0.0114  1.0000  -9.7153   0.0000   0.2412
  17.800   1.3997   0.08236   0.07836  -0.0277  0.0114  1.0000  -9.7494   0.0000   0.2413
  17.900   1.3981   0.08403   0.08010  -0.0281  0.0114  1.0000  -9.7821   0.0000   0.2414
  18.000   1.3963   0.08575   0.08187  -0.0287  0.0113  1.0000  -9.8132   0.0000   0.2416
  18.100   1.3943   0.08751   0.08369  -0.0292  0.0113  1.0000  -9.8419   0.0000   0.2418
  18.200   1.3921   0.08930   0.08554  -0.0298  0.0113  1.0000  -9.8693   0.0000   0.2420
  18.300   1.3899   0.09113   0.08743  -0.0305  0.0112  1.0000  -9.8951   0.0000   0.2422
  18.400   1.3875   0.09301   0.08936  -0.0311  0.0112  1.0000  -9.9188   0.0000   0.2425
  18.500   1.3850   0.09492   0.09133  -0.0319  0.0111  1.0000  -9.9412   0.0000   0.2428
  18.600   1.3823   0.09686   0.09333  -0.0326  0.0111  1.0000  -9.9621   0.0000   0.2432
  18.700   1.3796   0.09886   0.09538  -0.0335  0.0111  1.0000  -9.9807   0.0000   0.2436
  18.800   1.3767   0.10089   0.09746  -0.0343  0.0110  1.0000  -9.9974   0.0000   0.2440
  18.900   1.3737   0.10295   0.09958  -0.0352  0.0110  1.0000  -10.0123   0.0000   0.2444
  19.000   1.3705   0.10506   0.10174  -0.0362  0.0110  1.0000  -10.0266   0.0000   0.2449
  19.100   1.3672   0.10722   0.10396  -0.0372  0.0110  1.0000  -10.0380   0.0000   0.2455
  19.200   1.3636   0.10944   0.10624  -0.0383  0.0109  1.0000  -10.0460   0.0000   0.2461
  19.300   1.3600   0.11170   0.10855  -0.0394  0.0109  1.0000  -10.0515   0.0000   0.2468
  19.400   1.3562   0.11400   0.11091  -0.0406  0.0109  1.0000  -10.0545   0.0000   0.2475
  19.500   1.3523   0.11635   0.11331  -0.0419  0.0109  1.0000  -10.0547   0.0000   0.2482
  19.600   1.3482   0.11875   0.11577  -0.0432  0.0108  1.0000  -10.0520   0.0000   0.2490
  19.700   1.3440   0.12120   0.11827  -0.0446  0.0108  1.0000  -10.0459   0.0000   0.2499
  19.800   1.3396   0.12370   0.12084  -0.0461  0.0108  1.0000  -10.0360   0.0000   0.2508
  19.900   1.3351   0.12627   0.12346  -0.0476  0.0108  1.0000  -10.0221   0.0000   0.2518
  20.000   1.3303   0.12889   0.12615  -0.0492  0.0108  1.0000  -10.0040   0.0000   0.2529
  20.100   1.3253   0.13160   0.12891  -0.0509  0.0107  1.0000  -9.9809   0.0000   0.2541
  20.200   1.3201   0.13438   0.13175  -0.0527  0.0107  1.0000  -9.9521   0.0000   0.2553
  20.300   1.3145   0.13727   0.13469  -0.0545  0.0107  1.0000  -9.9166   0.0000   0.2566
  20.400   1.3086   0.14026   0.13775  -0.0565  0.0107  1.0000  -9.8731   0.0000   0.2581
  20.500   1.3021   0.14340   0.14096  -0.0587  0.0107  1.0000  -9.8198   0.0000   0.2597
  20.600   1.2950   0.14671   0.14434  -0.0610  0.0107  1.0000  -9.7541   0.0000   0.2615
  20.700   1.2869   0.15031   0.14801  -0.0635  0.0107  1.0000  -9.6694   0.0000   0.2635
  20.800   1.2775   0.15425   0.15202  -0.0663  0.0107  1.0000  -9.5608   0.0000   0.2658
  20.900   1.2661   0.15872   0.15658  -0.0695  0.0107  1.0000  -9.4157   0.0000   0.2686
  21.000   1.2511   0.16418   0.16216  -0.0735  0.0107  1.0000  -9.2035   0.0000   0.2723
  21.900   0.7703   0.26097   0.25986  -0.1098  0.0104  1.0000  -1.7281   0.0000   0.3684
  22.000   0.7720   0.26216   0.26106  -0.1105  0.0103  1.0000  -1.7446   0.0000   0.3688
  22.100   0.7737   0.26330   0.26220  -0.1111  0.0102  1.0000  -1.7652   0.0000   0.3691
  22.200   0.7755   0.26438   0.26328  -0.1117  0.0102  1.0000  -1.7915   0.0000   0.3693
  22.300   0.7774   0.26541   0.26431  -0.1123  0.0101  1.0000  -1.8226   0.0000   0.3694
  22.400   0.7794   0.26638   0.26528  -0.1128  0.0101  1.0000  -1.8582   0.0000   0.3695
  22.500   0.7816   0.26728   0.26619  -0.1133  0.0101  1.0000  -1.8989   0.0000   0.3695
  22.600   0.7841   0.26811   0.26703  -0.1137  0.0101  1.0000  -1.9457   0.0000   0.3693
  22.700   0.7866   0.26895   0.26787  -0.1141  0.0100  1.0000  -1.9955   0.0000   0.3691
  22.800   0.7795   0.27552   0.27443  -0.1163  0.0091  1.0000  -1.6284   0.0000   0.3739
  22.900   0.7809   0.27685   0.27577  -0.1170  0.0090  1.0000  -1.6359   0.0000   0.3743
  23.000   0.7824   0.27819   0.27711  -0.1177  0.0089  1.0000  -1.6469   0.0000   0.3747
  23.100   0.7839   0.27945   0.27837  -0.1183  0.0088  1.0000  -1.6617   0.0000   0.3750
  23.200   0.7855   0.28065   0.27958  -0.1189  0.0087  1.0000  -1.6803   0.0000   0.3753
  23.300   0.7871   0.28181   0.28074  -0.1196  0.0087  1.0000  -1.7026   0.0000   0.3756
  23.400   0.7888   0.28291   0.28185  -0.1202  0.0086  1.0000  -1.7289   0.0000   0.3758
  23.500   0.7906   0.28396   0.28290  -0.1207  0.0086  1.0000  -1.7592   0.0000   0.3759
  23.600   0.7925   0.28496   0.28390  -0.1212  0.0086  1.0000  -1.7942   0.0000   0.3759
  23.700   0.7946   0.28589   0.28484  -0.1217  0.0085  1.0000  -1.8342   0.0000   0.3759
  23.800   0.7969   0.28676   0.28571  -0.1222  0.0085  1.0000  -1.8802   0.0000   0.3757
  23.900   0.7921   0.29293   0.29188  -0.1239  0.0078  1.0000  -1.5443   0.0000   0.3794
  24.000   0.7933   0.29440   0.29334  -0.1246  0.0077  1.0000  -1.5468   0.0000   0.3798
  24.100   0.7947   0.29580   0.29475  -0.1253  0.0076  1.0000  -1.5544   0.0000   0.3802
  24.200   0.7961   0.29715   0.29610  -0.1259  0.0075  1.0000  -1.5659   0.0000   0.3806
  24.300   0.7975   0.29845   0.29741  -0.1266  0.0074  1.0000  -1.5808   0.0000   0.3809
  24.400   0.7990   0.29971   0.29867  -0.1272  0.0073  1.0000  -1.5986   0.0000   0.3812
  24.500   0.8005   0.30093   0.29989  -0.1278  0.0073  1.0000  -1.6190   0.0000   0.3814
  24.600   0.8020   0.30211   0.30107  -0.1285  0.0072  1.0000  -1.6429   0.0000   0.3817
  24.700   0.8036   0.30323   0.30220  -0.1290  0.0072  1.0000  -1.6705   0.0000   0.3818
  24.800   0.8052   0.30431   0.30328  -0.1296  0.0072  1.0000  -1.7020   0.0000   0.3819
  24.900   0.8070   0.30533   0.30431  -0.1301  0.0071  1.0000  -1.7379   0.0000   0.3820


