xflr5 v6.47

 Calculated polar for: NACA 65(2)-415

 1 1 Reynolds number fixed          Mach number fixed         

 xtrf =   1.000 (top)        1.000 (bottom)
 Mach =   0.000     Re =     2.000 e 6     Ncrit =   9.000

  alpha     CL        CD       CDp       Cm    Top Xtr Bot Xtr   Cpmin    Chinge    XCp    
 ------- -------- --------- --------- -------- ------- ------- -------- --------- ---------
   0.000   0.3533   0.00501   0.00098  -0.0817  0.6403  0.6373  -0.6918   0.0000   0.4800
   0.100   0.3652   0.00501   0.00098  -0.0819  0.6391  0.6386  -0.6977   0.0000   0.4729
   0.200   0.3770   0.00501   0.00098  -0.0820  0.6379  0.6399  -0.7036   0.0000   0.4662
   0.300   0.3887   0.00501   0.00099  -0.0822  0.6366  0.6411  -0.7096   0.0000   0.4599
   0.400   0.4004   0.00501   0.00100  -0.0824  0.6353  0.6425  -0.7156   0.0000   0.4540
   0.500   0.4121   0.00502   0.00101  -0.0825  0.6340  0.6438  -0.7216   0.0000   0.4484
   0.600   0.4237   0.00503   0.00102  -0.0827  0.6328  0.6452  -0.7276   0.0000   0.4431
   0.700   0.4353   0.00505   0.00102  -0.0828  0.6316  0.6466  -0.7336   0.0000   0.4381
   0.800   0.4469   0.00507   0.00104  -0.0829  0.6303  0.6479  -0.7395   0.0000   0.4334
   0.900   0.4587   0.00507   0.00104  -0.0831  0.6291  0.6492  -0.7456   0.0000   0.4289
   1.000   0.4704   0.00507   0.00105  -0.0833  0.6277  0.6505  -0.7517   0.0000   0.4246
   1.100   0.4821   0.00507   0.00107  -0.0835  0.6261  0.6519  -0.7577   0.0000   0.4205
   1.200   0.4937   0.00508   0.00108  -0.0836  0.6243  0.6532  -0.7639   0.0000   0.4166
   1.300   0.5052   0.00510   0.00109  -0.0837  0.6224  0.6547  -0.7700   0.0000   0.4129
   1.400   0.5167   0.00512   0.00110  -0.0838  0.6205  0.6561  -0.7761   0.0000   0.4093
   1.500   0.5285   0.00513   0.00111  -0.0840  0.6185  0.6576  -0.7824   0.0000   0.4059
   1.600   0.5402   0.00514   0.00112  -0.0842  0.6163  0.6589  -0.7886   0.0000   0.4027
   1.700   0.5517   0.00514   0.00113  -0.0843  0.6142  0.6603  -0.7947   0.0000   0.3996
   1.800   0.5631   0.00516   0.00115  -0.0844  0.6121  0.6617  -0.8008   0.0000   0.3965
   1.900   0.5747   0.00518   0.00117  -0.0845  0.6100  0.6631  -0.8071   0.0000   0.3937
   2.000   0.5864   0.00518   0.00118  -0.0847  0.6076  0.6646  -0.8135   0.0000   0.3909
   2.100   0.5979   0.00519   0.00120  -0.0848  0.6050  0.6662  -0.8198   0.0000   0.3882
   2.200   0.6093   0.00522   0.00121  -0.0849  0.6024  0.6677  -0.8260   0.0000   0.3856
   2.400   0.6324   0.00525   0.00124  -0.0852  0.5962  0.6706  -0.8387   0.0000   0.3808
   2.500   0.6437   0.00527   0.00126  -0.0853  0.5930  0.6721  -0.8449   0.0000   0.3784
   2.600   0.6552   0.00529   0.00128  -0.0854  0.5899  0.6736  -0.8513   0.0000   0.3762
   2.700   0.6667   0.00530   0.00130  -0.0855  0.5858  0.6752  -0.8852   0.0000   0.3740
   2.800   0.6778   0.00534   0.00132  -0.0856  0.5810  0.6768  -0.9274   0.0000   0.3719
   2.900   0.6891   0.00537   0.00134  -0.0857  0.5752  0.6784  -0.9713   0.0000   0.3699
   3.000   0.7003   0.00541   0.00136  -0.0857  0.5696  0.6799  -1.0170   0.0000   0.3679
   3.100   0.7114   0.00544   0.00139  -0.0858  0.5635  0.6814  -1.0667   0.0000   0.3660
   3.200   0.7226   0.00547   0.00141  -0.0859  0.5577  0.6830  -1.1190   0.0000   0.3641
   3.300   0.7336   0.00552   0.00144  -0.0859  0.5516  0.6847  -1.1715   0.0000   0.3623
   3.400   0.7445   0.00558   0.00148  -0.0859  0.5436  0.6864  -1.2242   0.0000   0.3605
   3.500   0.7553   0.00564   0.00151  -0.0859  0.5346  0.6881  -1.2774   0.0000   0.3587
   3.700   0.7767   0.00577   0.00160  -0.0859  0.5157  0.6913  -1.3850   0.0000   0.3553
   3.800   0.7871   0.00586   0.00165  -0.0858  0.5046  0.6929  -1.4389   0.0000   0.3537
   3.900   0.7972   0.00596   0.00171  -0.0857  0.4903  0.6947  -1.4928   0.0000   0.3521
   4.000   0.8067   0.00611   0.00178  -0.0855  0.4715  0.6965  -1.5455   0.0000   0.3504
   4.100   0.8152   0.00634   0.00189  -0.0851  0.4451  0.6983  -1.5961   0.0000   0.3488
   4.300   0.8291   0.00700   0.00223  -0.0838  0.3717  0.7017  -1.6919   0.0000   0.3453
   4.400   0.8361   0.00732   0.00240  -0.0832  0.3380  0.7035  -1.7421   0.0000   0.3436
   4.500   0.8431   0.00764   0.00257  -0.0826  0.3055  0.7053  -1.7928   0.0000   0.3419
   4.600   0.8501   0.00795   0.00274  -0.0820  0.2740  0.7072  -1.8439   0.0000   0.3403
   4.700   0.8572   0.00825   0.00291  -0.0814  0.2441  0.7091  -1.8956   0.0000   0.3387
   4.800   0.8644   0.00855   0.00308  -0.0809  0.2162  0.7109  -1.9478   0.0000   0.3372
   4.900   0.8717   0.00882   0.00324  -0.0803  0.1905  0.7127  -2.0008   0.0000   0.3356
   5.000   0.8791   0.00909   0.00340  -0.0798  0.1671  0.7147  -2.0547   0.0000   0.3341
   5.100   0.8866   0.00934   0.00356  -0.0792  0.1454  0.7167  -2.1091   0.0000   0.3327
   5.200   0.8941   0.00959   0.00372  -0.0787  0.1255  0.7187  -2.1640   0.0000   0.3312
   5.500   0.9177   0.01025   0.00417  -0.0773  0.0786  0.7245  -2.3345   0.0000   0.3271
   5.600   0.9258   0.01045   0.00431  -0.0769  0.0674  0.7266  -2.3930   0.0000   0.3258
   5.700   0.9340   0.01064   0.00445  -0.0764  0.0569  0.7287  -2.4523   0.0000   0.3245
   5.900   0.9506   0.01099   0.00472  -0.0756  0.0411  0.7328  -2.5729   0.0000   0.3220
   6.000   0.9593   0.01113   0.00485  -0.0753  0.0365  0.7349  -2.6353   0.0000   0.3208
   6.100   0.9682   0.01127   0.00497  -0.0750  0.0333  0.7372  -2.6987   0.0000   0.3196
   6.200   0.9772   0.01139   0.00508  -0.0747  0.0310  0.7394  -2.7632   0.0000   0.3185
   6.300   0.9863   0.01151   0.00519  -0.0744  0.0293  0.7415  -2.8283   0.0000   0.3174
   6.400   0.9954   0.01162   0.00531  -0.0742  0.0278  0.7437  -2.8941   0.0000   0.3163
   6.500   1.0042   0.01174   0.00543  -0.0738  0.0264  0.7459  -2.9590   0.0000   0.3152
   6.600   1.0135   0.01184   0.00553  -0.0736  0.0255  0.7483  -3.0264   0.0000   0.3142
   6.700   1.0224   0.01196   0.00565  -0.0733  0.0245  0.7506  -3.0931   0.0000   0.3132
   6.800   1.0309   0.01209   0.00578  -0.0729  0.0235  0.7528  -3.1583   0.0000   0.3121
   6.900   1.0400   0.01219   0.00589  -0.0727  0.0228  0.7552  -3.2261   0.0000   0.3111
   7.000   1.0489   0.01229   0.00600  -0.0723  0.0221  0.7577  -3.2939   0.0000   0.3101
   7.100   1.0574   0.01242   0.00612  -0.0720  0.0213  0.7603  -3.3610   0.0000   0.3091
   7.200   1.0655   0.01256   0.00627  -0.0715  0.0205  0.7627  -3.4258   0.0000   0.3080
   7.300   1.0740   0.01266   0.00638  -0.0712  0.0200  0.7651  -3.4935   0.0000   0.3070
   7.400   1.0821   0.01276   0.00649  -0.0707  0.0195  0.7678  -3.5617   0.0000   0.3059
   7.500   1.0895   0.01287   0.00660  -0.0701  0.0190  0.7706  -3.6303   0.0000   0.3048
   7.600   1.0965   0.01299   0.00673  -0.0694  0.0185  0.7731  -3.6977   0.0000   0.3037
   7.700   1.1029   0.01315   0.00690  -0.0687  0.0179  0.7758  -3.7618   0.0000   0.3025
   7.800   1.1106   0.01326   0.00702  -0.0681  0.0176  0.7787  -3.8321   0.0000   0.3015
   7.900   1.1181   0.01338   0.00715  -0.0676  0.0173  0.7815  -3.9025   0.0000   0.3004
   8.000   1.1255   0.01350   0.00729  -0.0670  0.0169  0.7842  -3.9727   0.0000   0.2994
   8.100   1.1327   0.01364   0.00744  -0.0664  0.0166  0.7873  -4.0427   0.0000   0.2983
   8.200   1.1396   0.01379   0.00759  -0.0658  0.0163  0.7904  -4.1121   0.0000   0.2973
   8.300   1.1460   0.01396   0.00777  -0.0651  0.0159  0.7934  -4.1791   0.0000   0.2962
   8.400   1.1522   0.01414   0.00797  -0.0644  0.0156  0.7965  -4.2444   0.0000   0.2952
   8.500   1.1596   0.01428   0.00812  -0.0638  0.0154  0.7998  -4.3161   0.0000   0.2942
   8.600   1.1668   0.01442   0.00828  -0.0633  0.0152  0.8029  -4.3876   0.0000   0.2933
   8.700   1.1738   0.01457   0.00845  -0.0627  0.0150  0.8060  -4.4588   0.0000   0.2923
   8.800   1.1807   0.01473   0.00863  -0.0621  0.0148  0.8094  -4.5303   0.0000   0.2914
   9.000   1.1941   0.01507   0.00900  -0.0609  0.0143  0.8159  -4.6733   0.0000   0.2895
   9.100   1.2006   0.01526   0.00920  -0.0603  0.0141  0.8195  -4.7443   0.0000   0.2886
   9.200   1.2067   0.01547   0.00942  -0.0597  0.0139  0.8230  -4.8133   0.0000   0.2876
   9.300   1.2120   0.01572   0.00968  -0.0589  0.0137  0.8267  -4.8778   0.0000   0.2866
   9.400   1.2180   0.01594   0.00992  -0.0582  0.0135  0.8305  -4.9457   0.0000   0.2857
   9.500   1.2248   0.01612   0.01012  -0.0577  0.0134  0.8341  -5.0193   0.0000   0.2848
   9.600   1.2314   0.01630   0.01033  -0.0571  0.0133  0.8380  -5.0918   0.0000   0.2840
   9.700   1.2379   0.01651   0.01055  -0.0566  0.0132  0.8419  -5.1644   0.0000   0.2831
   9.800   1.2443   0.01671   0.01078  -0.0560  0.0130  0.8457  -5.2365   0.0000   0.2823
   9.900   1.2506   0.01692   0.01102  -0.0554  0.0129  0.8500  -5.3089   0.0000   0.2814
  10.000   1.2568   0.01714   0.01126  -0.0548  0.0128  0.8541  -5.3813   0.0000   0.2806
  10.100   1.2629   0.01737   0.01150  -0.0543  0.0127  0.8586  -5.4538   0.0000   0.2798
  10.200   1.2690   0.01760   0.01175  -0.0537  0.0126  0.8632  -5.5267   0.0000   0.2790
  10.300   1.2748   0.01783   0.01201  -0.0531  0.0125  0.8682  -5.5992   0.0000   0.2781
  10.400   1.2806   0.01808   0.01228  -0.0525  0.0124  0.8733  -5.6715   0.0000   0.2773
  10.500   1.2862   0.01834   0.01257  -0.0518  0.0123  0.8790  -5.7437   0.0000   0.2765
  10.600   1.2915   0.01861   0.01287  -0.0512  0.0122  0.8849  -5.8179   0.0000   0.2757
  10.800   1.3009   0.01922   0.01353  -0.0497  0.0119  0.8986  -5.9596   0.0000   0.2739
  10.900   1.3046   0.01957   0.01392  -0.0489  0.0118  0.9063  -6.0248   0.0000   0.2730
  11.000   1.3075   0.01997   0.01436  -0.0479  0.0117  0.9148  -6.0844   0.0000   0.2720
  11.100   1.3125   0.02024   0.01467  -0.0472  0.0117  0.9236  -6.1577   0.0000   0.2712
  11.200   1.3172   0.02049   0.01496  -0.0464  0.0116  0.9339  -6.2311   0.0000   0.2703
  11.300   1.3213   0.02073   0.01525  -0.0456  0.0116  0.9497  -6.3016   0.0000   0.2694
  11.600   1.3404   0.02163   0.01624  -0.0446  0.0114  1.0000  -6.5457   0.0000   0.2677
  11.700   1.3460   0.02197   0.01660  -0.0442  0.0113  1.0000  -6.6242   0.0000   0.2670
  11.800   1.3516   0.02232   0.01696  -0.0437  0.0113  1.0000  -6.7027   0.0000   0.2664
  11.900   1.3570   0.02268   0.01734  -0.0433  0.0112  1.0000  -6.7809   0.0000   0.2658
  12.000   1.3624   0.02305   0.01772  -0.0428  0.0111  1.0000  -6.8594   0.0000   0.2651
  12.100   1.3678   0.02342   0.01810  -0.0424  0.0111  1.0000  -6.9383   0.0000   0.2645
  12.200   1.3731   0.02379   0.01849  -0.0420  0.0110  1.0000  -7.0177   0.0000   0.2639
  12.300   1.3785   0.02417   0.01888  -0.0416  0.0109  1.0000  -7.0977   0.0000   0.2633
  12.400   1.3837   0.02456   0.01928  -0.0411  0.0109  1.0000  -7.1778   0.0000   0.2627
  12.500   1.3889   0.02495   0.01968  -0.0407  0.0108  1.0000  -7.2583   0.0000   0.2621
  12.600   1.3940   0.02535   0.02010  -0.0403  0.0107  1.0000  -7.3385   0.0000   0.2615
  12.700   1.3990   0.02577   0.02052  -0.0399  0.0107  1.0000  -7.4183   0.0000   0.2610
  12.800   1.4039   0.02619   0.02096  -0.0395  0.0106  1.0000  -7.4974   0.0000   0.2604
  12.900   1.4085   0.02664   0.02142  -0.0391  0.0105  1.0000  -7.5752   0.0000   0.2598
  13.000   1.4130   0.02710   0.02190  -0.0386  0.0105  1.0000  -7.6552   0.0000   0.2592
  13.100   1.4173   0.02758   0.02239  -0.0382  0.0104  1.0000  -7.7348   0.0000   0.2587
  13.200   1.4213   0.02809   0.02291  -0.0378  0.0104  1.0000  -7.8130   0.0000   0.2581
  13.300   1.4251   0.02862   0.02346  -0.0373  0.0103  1.0000  -7.8893   0.0000   0.2575
  13.400   1.4284   0.02919   0.02405  -0.0368  0.0103  1.0000  -7.9626   0.0000   0.2569
  13.500   1.4312   0.02980   0.02468  -0.0363  0.0102  1.0000  -8.0329   0.0000   0.2563
  13.600   1.4335   0.03046   0.02536  -0.0358  0.0102  1.0000  -8.0985   0.0000   0.2557
  13.700   1.4351   0.03119   0.02612  -0.0353  0.0101  1.0000  -8.1592   0.0000   0.2551
  13.800   1.4358   0.03200   0.02696  -0.0347  0.0100  1.0000  -8.2128   0.0000   0.2545
  13.900   1.4392   0.03259   0.02757  -0.0343  0.0100  1.0000  -8.2873   0.0000   0.2540
  14.000   1.4435   0.03312   0.02812  -0.0340  0.0100  1.0000  -8.3686   0.0000   0.2535
  14.100   1.4477   0.03365   0.02867  -0.0336  0.0100  1.0000  -8.4498   0.0000   0.2530
  14.200   1.4517   0.03421   0.02925  -0.0333  0.0099  1.0000  -8.5299   0.0000   0.2525
  14.300   1.4556   0.03478   0.02984  -0.0330  0.0099  1.0000  -8.6098   0.0000   0.2520
  14.400   1.4595   0.03536   0.03045  -0.0327  0.0099  1.0000  -8.6893   0.0000   0.2516
  14.500   1.4632   0.03597   0.03107  -0.0324  0.0099  1.0000  -8.7679   0.0000   0.2511
  14.600   1.4668   0.03658   0.03170  -0.0321  0.0098  1.0000  -8.8464   0.0000   0.2506
  14.700   1.4704   0.03721   0.03235  -0.0318  0.0098  1.0000  -8.9243   0.0000   0.2502
  14.800   1.4739   0.03784   0.03301  -0.0316  0.0098  1.0000  -9.0028   0.0000   0.2497
  14.900   1.4775   0.03847   0.03367  -0.0313  0.0097  1.0000  -9.0817   0.0000   0.2493
  15.000   1.4809   0.03913   0.03434  -0.0311  0.0097  1.0000  -9.1602   0.0000   0.2489
  15.100   1.4844   0.03978   0.03502  -0.0308  0.0096  1.0000  -9.2417   0.0000   0.2485
  15.200   1.4877   0.04046   0.03572  -0.0306  0.0096  1.0000  -9.3235   0.0000   0.2481
  15.300   1.4910   0.04114   0.03643  -0.0304  0.0095  1.0000  -9.4051   0.0000   0.2477
  15.400   1.4942   0.04184   0.03715  -0.0302  0.0095  1.0000  -9.4866   0.0000   0.2473
  15.500   1.4972   0.04256   0.03789  -0.0300  0.0095  1.0000  -9.5668   0.0000   0.2469
  15.600   1.5002   0.04329   0.03865  -0.0298  0.0094  1.0000  -9.6470   0.0000   0.2465
  15.700   1.5030   0.04406   0.03943  -0.0296  0.0094  1.0000  -9.7256   0.0000   0.2461
  15.800   1.5056   0.04484   0.04024  -0.0294  0.0093  1.0000  -9.8034   0.0000   0.2457
  15.900   1.5082   0.04563   0.04105  -0.0293  0.0093  1.0000  -9.8811   0.0000   0.2454
  16.000   1.5107   0.04645   0.04190  -0.0291  0.0093  1.0000  -9.9579   0.0000   0.2450
  16.100   1.5131   0.04727   0.04274  -0.0290  0.0092  1.0000  -10.0351   0.0000   0.2447
  16.200   1.5154   0.04812   0.04361  -0.0288  0.0092  1.0000  -10.1108   0.0000   0.2443
  16.300   1.5176   0.04897   0.04449  -0.0287  0.0092  1.0000  -10.1869   0.0000   0.2440
  16.400   1.5198   0.04985   0.04539  -0.0286  0.0091  1.0000  -10.2623   0.0000   0.2437
  16.500   1.5218   0.05075   0.04632  -0.0285  0.0091  1.0000  -10.3370   0.0000   0.2434
  16.600   1.5238   0.05166   0.04725  -0.0285  0.0091  1.0000  -10.4117   0.0000   0.2431
  16.700   1.5256   0.05260   0.04822  -0.0284  0.0091  1.0000  -10.4849   0.0000   0.2428
  16.800   1.5274   0.05355   0.04919  -0.0284  0.0090  1.0000  -10.5583   0.0000   0.2425
  16.900   1.5289   0.05454   0.05020  -0.0283  0.0090  1.0000  -10.6295   0.0000   0.2422
  17.000   1.5304   0.05554   0.05122  -0.0283  0.0090  1.0000  -10.7007   0.0000   0.2420
  17.100   1.5316   0.05658   0.05228  -0.0283  0.0089  1.0000  -10.7698   0.0000   0.2417
  17.200   1.5328   0.05763   0.05337  -0.0283  0.0089  1.0000  -10.8404   0.0000   0.2415
  17.300   1.5337   0.05872   0.05448  -0.0284  0.0089  1.0000  -10.9104   0.0000   0.2412
  17.400   1.5345   0.05985   0.05563  -0.0284  0.0088  1.0000  -10.9787   0.0000   0.2410
  17.500   1.5351   0.06101   0.05682  -0.0285  0.0088  1.0000  -11.0453   0.0000   0.2408
  17.600   1.5353   0.06222   0.05806  -0.0286  0.0088  1.0000  -11.1084   0.0000   0.2406
  17.700   1.5351   0.06348   0.05935  -0.0287  0.0088  1.0000  -11.1686   0.0000   0.2405
  17.800   1.5345   0.06482   0.06072  -0.0288  0.0087  1.0000  -11.2242   0.0000   0.2403
  17.900   1.5333   0.06624   0.06217  -0.0290  0.0087  1.0000  -11.2745   0.0000   0.2402
  18.000   1.5316   0.06775   0.06372  -0.0292  0.0086  1.0000  -11.3190   0.0000   0.2401
  18.100   1.5290   0.06940   0.06540  -0.0295  0.0086  1.0000  -11.3549   0.0000   0.2400
  18.200   1.5257   0.07116   0.06720  -0.0297  0.0086  1.0000  -11.3829   0.0000   0.2400
  18.300   1.5213   0.07306   0.06915  -0.0300  0.0085  1.0000  -11.4002   0.0000   0.2400
  18.400   1.5172   0.07497   0.07111  -0.0304  0.0085  1.0000  -11.4188   0.0000   0.2400
  18.500   1.5178   0.07626   0.07243  -0.0307  0.0085  1.0000  -11.4846   0.0000   0.2400
  18.600   1.5181   0.07762   0.07382  -0.0311  0.0085  1.0000  -11.5460   0.0000   0.2399
  18.700   1.5182   0.07900   0.07524  -0.0314  0.0085  1.0000  -11.6063   0.0000   0.2399
  18.800   1.5179   0.08046   0.07673  -0.0318  0.0084  1.0000  -11.6622   0.0000   0.2399
  18.900   1.5175   0.08193   0.07823  -0.0323  0.0084  1.0000  -11.7174   0.0000   0.2399
  19.000   1.5169   0.08345   0.07980  -0.0327  0.0084  1.0000  -11.7699   0.0000   0.2400
  19.100   1.5161   0.08501   0.08139  -0.0332  0.0084  1.0000  -11.8202   0.0000   0.2401
  19.200   1.5152   0.08659   0.08301  -0.0337  0.0084  1.0000  -11.8697   0.0000   0.2401
  19.300   1.5139   0.08824   0.08470  -0.0342  0.0084  1.0000  -11.9154   0.0000   0.2403
  19.400   1.5127   0.08990   0.08639  -0.0348  0.0084  1.0000  -11.9611   0.0000   0.2404
  19.500   1.5113   0.09162   0.08815  -0.0354  0.0083  1.0000  -12.0036   0.0000   0.2405
  19.600   1.5096   0.09337   0.08994  -0.0361  0.0083  1.0000  -12.0441   0.0000   0.2407
  19.700   1.5080   0.09514   0.09175  -0.0367  0.0083  1.0000  -12.0860   0.0000   0.2409
  19.800   1.5060   0.09698   0.09362  -0.0375  0.0083  1.0000  -12.1241   0.0000   0.2412
  19.900   1.5039   0.09884   0.09552  -0.0382  0.0083  1.0000  -12.1606   0.0000   0.2414
  20.000   1.5018   0.10072   0.09744  -0.0390  0.0083  1.0000  -12.1964   0.0000   0.2417
  20.100   1.4994   0.10265   0.09941  -0.0398  0.0082  1.0000  -12.2293   0.0000   0.2421
  20.200   1.4970   0.10461   0.10141  -0.0407  0.0082  1.0000  -12.2604   0.0000   0.2424
  20.300   1.4946   0.10659   0.10343  -0.0416  0.0082  1.0000  -12.2909   0.0000   0.2428
  20.400   1.4921   0.10858   0.10546  -0.0425  0.0082  1.0000  -12.3198   0.0000   0.2432
  20.500   1.4894   0.11064   0.10756  -0.0435  0.0082  1.0000  -12.3455   0.0000   0.2436
  20.600   1.4866   0.11271   0.10967  -0.0446  0.0082  1.0000  -12.3694   0.0000   0.2441
  20.700   1.4838   0.11479   0.11180  -0.0456  0.0081  1.0000  -12.3917   0.0000   0.2446
  20.800   1.4809   0.11691   0.11395  -0.0467  0.0081  1.0000  -12.4124   0.0000   0.2451
  20.900   1.4779   0.11906   0.11614  -0.0479  0.0081  1.0000  -12.4302   0.0000   0.2456
  21.000   1.4747   0.12125   0.11837  -0.0490  0.0081  1.0000  -12.4456   0.0000   0.2462
  21.100   1.4716   0.12344   0.12061  -0.0503  0.0081  1.0000  -12.4598   0.0000   0.2468
  21.200   1.4684   0.12565   0.12285  -0.0515  0.0080  1.0000  -12.4725   0.0000   0.2475
  21.300   1.4652   0.12788   0.12512  -0.0528  0.0080  1.0000  -12.4834   0.0000   0.2482
  21.400   1.4618   0.13014   0.12742  -0.0541  0.0080  1.0000  -12.4911   0.0000   0.2489
  21.500   1.4583   0.13244   0.12977  -0.0555  0.0080  1.0000  -12.4952   0.0000   0.2496
  21.600   1.4547   0.13476   0.13212  -0.0570  0.0080  1.0000  -12.4975   0.0000   0.2504
  21.700   1.4511   0.13708   0.13449  -0.0584  0.0080  1.0000  -12.4983   0.0000   0.2512
  21.800   1.4475   0.13942   0.13686  -0.0599  0.0079  1.0000  -12.4971   0.0000   0.2521
  21.900   1.4438   0.14178   0.13926  -0.0614  0.0079  1.0000  -12.4933   0.0000   0.2529
  22.000   1.4400   0.14418   0.14170  -0.0630  0.0079  1.0000  -12.4858   0.0000   0.2539
  22.100   1.4361   0.14661   0.14417  -0.0646  0.0079  1.0000  -12.4753   0.0000   0.2548
  22.200   1.4322   0.14904   0.14664  -0.0662  0.0079  1.0000  -12.4628   0.0000   0.2558
  22.300   1.4283   0.15148   0.14912  -0.0679  0.0079  1.0000  -12.4483   0.0000   0.2568
  22.400   1.4243   0.15394   0.15162  -0.0696  0.0079  1.0000  -12.4310   0.0000   0.2579
  22.500   1.4202   0.15644   0.15415  -0.0714  0.0078  1.0000  -12.4094   0.0000   0.2590
  22.600   1.4159   0.15898   0.15674  -0.0732  0.0078  1.0000  -12.3831   0.0000   0.2601
  22.700   1.4116   0.16153   0.15933  -0.0750  0.0078  1.0000  -12.3550   0.0000   0.2613
  22.800   1.4074   0.16407   0.16191  -0.0769  0.0078  1.0000  -12.3257   0.0000   0.2625
  22.900   1.4032   0.16661   0.16449  -0.0787  0.0078  1.0000  -12.2945   0.0000   0.2637
  23.000   1.3989   0.16920   0.16711  -0.0806  0.0078  1.0000  -12.2583   0.0000   0.2650
  23.100   1.3944   0.17184   0.16979  -0.0826  0.0078  1.0000  -12.2172   0.0000   0.2663
  23.200   1.3900   0.17447   0.17245  -0.0846  0.0078  1.0000  -12.1752   0.0000   0.2676
  23.300   1.3858   0.17706   0.17509  -0.0866  0.0077  1.0000  -12.1328   0.0000   0.2690
  23.400   1.3813   0.17972   0.17778  -0.0886  0.0077  1.0000  -12.0836   0.0000   0.2704
  23.500   1.3766   0.18245   0.18055  -0.0907  0.0077  1.0000  -12.0281   0.0000   0.2718
  23.600   1.3721   0.18513   0.18327  -0.0928  0.0077  1.0000  -11.9738   0.0000   0.2733
  23.700   1.3676   0.18781   0.18599  -0.0949  0.0077  1.0000  -11.9188   0.0000   0.2748
  23.800   1.3626   0.19064   0.18885  -0.0971  0.0077  1.0000  -11.8503   0.0000   0.2764
  23.900   1.3578   0.19344   0.19169  -0.0993  0.0077  1.0000  -11.7813   0.0000   0.2780
  24.000   1.3533   0.19618   0.19446  -0.1014  0.0076  1.0000  -11.7155   0.0000   0.2796
  24.100   1.3481   0.19910   0.19743  -0.1037  0.0076  1.0000  -11.6318   0.0000   0.2814
  24.200   1.3429   0.20205   0.20041  -0.1061  0.0076  1.0000  -11.5450   0.0000   0.2832
  24.300   1.3383   0.20488   0.20328  -0.1083  0.0076  1.0000  -11.4653   0.0000   0.2849
  24.400   1.3326   0.20796   0.20639  -0.1108  0.0076  1.0000  -11.3606   0.0000   0.2868
  24.500   1.3269   0.21111   0.20958  -0.1133  0.0076  1.0000  -11.2490   0.0000   0.2888
  24.600   1.3219   0.21409   0.21260  -0.1156  0.0076  1.0000  -11.1482   0.0000   0.2907
  24.700   1.3156   0.21745   0.21600  -0.1183  0.0075  1.0000  -11.0109   0.0000   0.2930
  24.800   1.3086   0.22105   0.21964  -0.1211  0.0075  1.0000  -10.8521   0.0000   0.2954
  24.900   1.3015   0.22473   0.22337  -0.1240  0.0075  1.0000  -10.6827   0.0000   0.2980
  25.000   1.2942   0.22850   0.22718  -0.1269  0.0075  1.0000  -10.4993   0.0000   0.3006
  25.100   1.2791   0.23461   0.23336  -0.1314  0.0074  1.0000  -10.1013   0.0000   0.3053


