xflr5 v6.47

 Calculated polar for: NACA 65(2)-415

 1 1 Reynolds number fixed          Mach number fixed         

 xtrf =   1.000 (top)        1.000 (bottom)
 Mach =   0.000     Re =     3.000 e 6     Ncrit =   9.000

  alpha     CL        CD       CDp       Cm    Top Xtr Bot Xtr   Cpmin    Chinge    XCp    
 ------- -------- --------- --------- -------- ------- ------- -------- --------- ---------
   0.000   0.3572   0.00447   0.00078  -0.0825  0.6251  0.6211  -0.6945   0.0000   0.4799
   0.100   0.3689   0.00448   0.00078  -0.0827  0.6238  0.6226  -0.7004   0.0000   0.4728
   0.200   0.3806   0.00449   0.00079  -0.0829  0.6226  0.6239  -0.7063   0.0000   0.4662
   0.300   0.3922   0.00450   0.00080  -0.0830  0.6213  0.6252  -0.7122   0.0000   0.4600
   0.400   0.4040   0.00451   0.00080  -0.0832  0.6200  0.6265  -0.7181   0.0000   0.4541
   0.500   0.4158   0.00451   0.00081  -0.0833  0.6187  0.6277  -0.7243   0.0000   0.4486
   0.700   0.4393   0.00453   0.00082  -0.0837  0.6153  0.6302  -0.7364   0.0000   0.4383
   0.800   0.4509   0.00454   0.00083  -0.0838  0.6133  0.6316  -0.7425   0.0000   0.4336
   0.900   0.4624   0.00456   0.00084  -0.0840  0.6112  0.6329  -0.7484   0.0000   0.4292
   1.000   0.4742   0.00456   0.00085  -0.0841  0.6094  0.6342  -0.7546   0.0000   0.4249
   1.100   0.4860   0.00456   0.00086  -0.0843  0.6073  0.6356  -0.7607   0.0000   0.4209
   1.200   0.4976   0.00458   0.00086  -0.0844  0.6052  0.6369  -0.7668   0.0000   0.4170
   1.300   0.5092   0.00460   0.00088  -0.0846  0.6031  0.6382  -0.7730   0.0000   0.4133
   1.400   0.5207   0.00462   0.00089  -0.0847  0.6010  0.6395  -0.7791   0.0000   0.4097
   1.500   0.5325   0.00462   0.00090  -0.0849  0.5989  0.6409  -0.7854   0.0000   0.4064
   1.600   0.5442   0.00462   0.00091  -0.0850  0.5965  0.6422  -0.7916   0.0000   0.4031
   1.700   0.5557   0.00464   0.00092  -0.0852  0.5939  0.6437  -0.7977   0.0000   0.4000
   1.800   0.5672   0.00467   0.00094  -0.0853  0.5912  0.6451  -0.8039   0.0000   0.3970
   1.900   0.5789   0.00467   0.00095  -0.0855  0.5888  0.6465  -0.8101   0.0000   0.3942
   2.000   0.5905   0.00469   0.00096  -0.0856  0.5861  0.6479  -0.8165   0.0000   0.3914
   2.200   0.6135   0.00473   0.00099  -0.0859  0.5797  0.6507  -0.8290   0.0000   0.3862
   2.300   0.6250   0.00474   0.00101  -0.0860  0.5760  0.6521  -0.8354   0.0000   0.3837
   2.400   0.6363   0.00478   0.00103  -0.0861  0.5720  0.6536  -0.8416   0.0000   0.3813
   2.500   0.6478   0.00480   0.00105  -0.0862  0.5665  0.6551  -0.8479   0.0000   0.3790
   2.600   0.6590   0.00484   0.00107  -0.0863  0.5599  0.6567  -0.8541   0.0000   0.3768
   2.800   0.6814   0.00493   0.00111  -0.0864  0.5469  0.6595  -0.9348   0.0000   0.3725
   2.900   0.6925   0.00497   0.00114  -0.0865  0.5404  0.6610  -0.9786   0.0000   0.3704
   3.000   0.7035   0.00502   0.00117  -0.0865  0.5332  0.6626  -1.0242   0.0000   0.3684
   3.200   0.7250   0.00516   0.00125  -0.0865  0.5128  0.6658  -1.1264   0.0000   0.3646
   3.300   0.7353   0.00527   0.00130  -0.0864  0.4981  0.6674  -1.1773   0.0000   0.3627
   3.400   0.7454   0.00539   0.00136  -0.0863  0.4822  0.6688  -1.2282   0.0000   0.3609
   3.500   0.7551   0.00554   0.00143  -0.0861  0.4630  0.6704  -1.2787   0.0000   0.3590
   3.600   0.7640   0.00573   0.00152  -0.0858  0.4384  0.6720  -1.3278   0.0000   0.3572
   3.700   0.7723   0.00598   0.00165  -0.0854  0.4077  0.6737  -1.3756   0.0000   0.3554
   3.800   0.7802   0.00626   0.00179  -0.0849  0.3755  0.6754  -1.4230   0.0000   0.3535
   3.900   0.7880   0.00653   0.00193  -0.0845  0.3443  0.6771  -1.4706   0.0000   0.3517
   4.000   0.7961   0.00680   0.00206  -0.0840  0.3149  0.6787  -1.5191   0.0000   0.3500
   4.100   0.8041   0.00705   0.00220  -0.0836  0.2864  0.6802  -1.5681   0.0000   0.3483
   4.200   0.8121   0.00731   0.00234  -0.0831  0.2578  0.6819  -1.6173   0.0000   0.3466
   4.300   0.8201   0.00756   0.00247  -0.0827  0.2309  0.6837  -1.6698   0.0000   0.3450
   4.400   0.8282   0.00780   0.00261  -0.0823  0.2065  0.6855  -1.7230   0.0000   0.3434
   4.500   0.8366   0.00803   0.00274  -0.0819  0.1840  0.6872  -1.7773   0.0000   0.3418
   4.600   0.8450   0.00825   0.00287  -0.0815  0.1632  0.6889  -1.8321   0.0000   0.3403
   4.700   0.8535   0.00846   0.00299  -0.0811  0.1444  0.6906  -1.8878   0.0000   0.3388
   4.800   0.8620   0.00866   0.00312  -0.0807  0.1265  0.6924  -1.9441   0.0000   0.3373
   4.900   0.8705   0.00885   0.00324  -0.0804  0.1096  0.6942  -2.0008   0.0000   0.3359
   5.000   0.8792   0.00904   0.00336  -0.0800  0.0949  0.6961  -2.0586   0.0000   0.3345
   5.100   0.8879   0.00922   0.00349  -0.0797  0.0824  0.6979  -2.1171   0.0000   0.3331
   5.200   0.8970   0.00938   0.00359  -0.0794  0.0720  0.6995  -2.1771   0.0000   0.3318
   5.300   0.9059   0.00954   0.00371  -0.0791  0.0621  0.7013  -2.2370   0.0000   0.3304
   5.400   0.9149   0.00969   0.00383  -0.0788  0.0531  0.7032  -2.2978   0.0000   0.3292
   5.500   0.9238   0.00984   0.00394  -0.0785  0.0451  0.7052  -2.3590   0.0000   0.3279
   5.600   0.9328   0.00999   0.00406  -0.0782  0.0388  0.7071  -2.4211   0.0000   0.3267
   5.700   0.9422   0.01012   0.00416  -0.0780  0.0346  0.7090  -2.4848   0.0000   0.3255
   5.800   0.9518   0.01022   0.00425  -0.0778  0.0318  0.7108  -2.5500   0.0000   0.3243
   5.900   0.9614   0.01032   0.00435  -0.0776  0.0295  0.7127  -2.6156   0.0000   0.3232
   6.000   0.9711   0.01042   0.00444  -0.0775  0.0279  0.7147  -2.6823   0.0000   0.3221
   6.100   0.9807   0.01052   0.00454  -0.0773  0.0264  0.7168  -2.7490   0.0000   0.3210
   6.200   0.9905   0.01061   0.00462  -0.0771  0.0254  0.7187  -2.8173   0.0000   0.3200
   6.400   1.0096   0.01081   0.00481  -0.0767  0.0232  0.7226  -2.9531   0.0000   0.3179
   6.500   1.0194   0.01089   0.00490  -0.0766  0.0226  0.7247  -3.0229   0.0000   0.3169
   6.600   1.0290   0.01098   0.00499  -0.0764  0.0218  0.7269  -3.0924   0.0000   0.3159
   6.700   1.0383   0.01108   0.00509  -0.0762  0.0209  0.7291  -3.1614   0.0000   0.3148
   6.900   1.0572   0.01127   0.00528  -0.0758  0.0197  0.7332  -3.3021   0.0000   0.3129
   7.000   1.0665   0.01136   0.00538  -0.0755  0.0190  0.7355  -3.3727   0.0000   0.3119
   7.100   1.0755   0.01147   0.00549  -0.0752  0.0183  0.7378  -3.4426   0.0000   0.3110
   7.200   1.0847   0.01158   0.00560  -0.0750  0.0177  0.7399  -3.5130   0.0000   0.3100
   7.300   1.0939   0.01167   0.00569  -0.0747  0.0173  0.7420  -3.5848   0.0000   0.3091
   7.400   1.1030   0.01177   0.00580  -0.0745  0.0168  0.7444  -3.6603   0.0000   0.3081
   7.500   1.1118   0.01188   0.00591  -0.0741  0.0163  0.7468  -3.7353   0.0000   0.3072
   7.600   1.1202   0.01200   0.00603  -0.0738  0.0158  0.7493  -3.8089   0.0000   0.3062
   7.800   1.1379   0.01220   0.00625  -0.0731  0.0152  0.7540  -3.9612   0.0000   0.3044
   7.900   1.1461   0.01230   0.00636  -0.0727  0.0148  0.7567  -4.0361   0.0000   0.3034
   8.000   1.1537   0.01241   0.00647  -0.0721  0.0145  0.7593  -4.1093   0.0000   0.3024
   8.200   1.1678   0.01264   0.00671  -0.0708  0.0139  0.7645  -4.2516   0.0000   0.3002
   8.300   1.1744   0.01279   0.00687  -0.0701  0.0136  0.7673  -4.3198   0.0000   0.2991
   8.400   1.1819   0.01290   0.00699  -0.0695  0.0134  0.7701  -4.3945   0.0000   0.2981
   8.500   1.1894   0.01301   0.00711  -0.0690  0.0133  0.7727  -4.4689   0.0000   0.2972
   8.600   1.1967   0.01313   0.00725  -0.0684  0.0131  0.7755  -4.5436   0.0000   0.2962
   8.700   1.2040   0.01326   0.00738  -0.0678  0.0129  0.7786  -4.6184   0.0000   0.2952
   8.800   1.2112   0.01339   0.00752  -0.0672  0.0127  0.7815  -4.6934   0.0000   0.2943
   8.900   1.2182   0.01353   0.00767  -0.0666  0.0125  0.7844  -4.7682   0.0000   0.2933
   9.000   1.2250   0.01367   0.00783  -0.0660  0.0123  0.7876  -4.8428   0.0000   0.2924
   9.100   1.2317   0.01383   0.00799  -0.0653  0.0122  0.7908  -4.9164   0.0000   0.2914
   9.200   1.2381   0.01401   0.00818  -0.0647  0.0120  0.7938  -4.9880   0.0000   0.2904
   9.300   1.2439   0.01420   0.00840  -0.0639  0.0117  0.7972  -5.0560   0.0000   0.2894
   9.400   1.2508   0.01436   0.00856  -0.0633  0.0117  0.8005  -5.1315   0.0000   0.2885
   9.500   1.2579   0.01451   0.00873  -0.0628  0.0116  0.8036  -5.2085   0.0000   0.2877
   9.600   1.2648   0.01466   0.00890  -0.0622  0.0115  0.8070  -5.2851   0.0000   0.2868
   9.700   1.2717   0.01483   0.00908  -0.0617  0.0114  0.8104  -5.3619   0.0000   0.2860
   9.800   1.2784   0.01500   0.00927  -0.0611  0.0113  0.8137  -5.4386   0.0000   0.2851
   9.900   1.2851   0.01517   0.00946  -0.0605  0.0112  0.8173  -5.5154   0.0000   0.2843
  10.000   1.2917   0.01535   0.00965  -0.0600  0.0111  0.8210  -5.5924   0.0000   0.2834
  10.100   1.2983   0.01554   0.00985  -0.0594  0.0110  0.8244  -5.6695   0.0000   0.2826
  10.200   1.3047   0.01573   0.01006  -0.0588  0.0110  0.8282  -5.7468   0.0000   0.2818
  10.300   1.3112   0.01593   0.01027  -0.0582  0.0109  0.8320  -5.8241   0.0000   0.2810
  10.400   1.3175   0.01613   0.01049  -0.0577  0.0108  0.8357  -5.9014   0.0000   0.2802
  10.500   1.3237   0.01634   0.01072  -0.0571  0.0107  0.8398  -5.9785   0.0000   0.2794
  10.600   1.3298   0.01656   0.01096  -0.0565  0.0106  0.8436  -6.0556   0.0000   0.2786
  10.700   1.3358   0.01679   0.01121  -0.0559  0.0105  0.8479  -6.1352   0.0000   0.2778
  10.900   1.3471   0.01729   0.01175  -0.0546  0.0103  0.8567  -6.2925   0.0000   0.2761
  11.000   1.3523   0.01757   0.01205  -0.0539  0.0102  0.8617  -6.3683   0.0000   0.2753
  11.100   1.3570   0.01788   0.01239  -0.0532  0.0101  0.8668  -6.4410   0.0000   0.2745
  11.300   1.3676   0.01844   0.01300  -0.0519  0.0100  0.8782  -6.5953   0.0000   0.2729
  11.400   1.3735   0.01868   0.01327  -0.0514  0.0100  0.8843  -6.6780   0.0000   0.2722
  11.600   1.3850   0.01917   0.01382  -0.0502  0.0099  0.8987  -6.8426   0.0000   0.2707
  11.700   1.3904   0.01943   0.01411  -0.0496  0.0099  0.9067  -6.9240   0.0000   0.2699
  11.800   1.3958   0.01969   0.01440  -0.0490  0.0098  0.9152  -7.0051   0.0000   0.2692
  11.900   1.4008   0.01995   0.01470  -0.0483  0.0098  0.9243  -7.0855   0.0000   0.2684
  12.000   1.4056   0.02021   0.01499  -0.0476  0.0097  0.9350  -7.1649   0.0000   0.2676
  12.100   1.4095   0.02044   0.01528  -0.0467  0.0097  0.9534  -7.2400   0.0000   0.2667
  12.200   1.4168   0.02069   0.01559  -0.0465  0.0096  1.0000  -7.3329   0.0000   0.2663
  12.300   1.4227   0.02100   0.01591  -0.0461  0.0095  1.0000  -7.4188   0.0000   0.2656
  12.400   1.4284   0.02132   0.01624  -0.0457  0.0095  1.0000  -7.5041   0.0000   0.2650
  12.500   1.4340   0.02165   0.01658  -0.0452  0.0094  1.0000  -7.5893   0.0000   0.2644
  12.600   1.4395   0.02199   0.01693  -0.0448  0.0094  1.0000  -7.6742   0.0000   0.2638
  12.700   1.4450   0.02234   0.01729  -0.0443  0.0093  1.0000  -7.7589   0.0000   0.2632
  12.800   1.4504   0.02269   0.01766  -0.0439  0.0093  1.0000  -7.8440   0.0000   0.2626
  12.900   1.4557   0.02305   0.01803  -0.0435  0.0093  1.0000  -7.9288   0.0000   0.2620
  13.000   1.4610   0.02342   0.01841  -0.0430  0.0092  1.0000  -8.0137   0.0000   0.2614
  13.100   1.4662   0.02380   0.01880  -0.0426  0.0092  1.0000  -8.0987   0.0000   0.2608
  13.200   1.4713   0.02419   0.01920  -0.0421  0.0091  1.0000  -8.1854   0.0000   0.2602
  13.300   1.4763   0.02458   0.01960  -0.0417  0.0091  1.0000  -8.2739   0.0000   0.2597
  13.400   1.4813   0.02498   0.02002  -0.0413  0.0090  1.0000  -8.3616   0.0000   0.2591
  13.500   1.4861   0.02540   0.02045  -0.0409  0.0090  1.0000  -8.4489   0.0000   0.2585
  13.600   1.4907   0.02583   0.02089  -0.0404  0.0089  1.0000  -8.5357   0.0000   0.2579
  13.700   1.4952   0.02628   0.02135  -0.0400  0.0089  1.0000  -8.6212   0.0000   0.2574
  13.800   1.4995   0.02674   0.02183  -0.0395  0.0089  1.0000  -8.7062   0.0000   0.2568
  13.900   1.5036   0.02723   0.02233  -0.0391  0.0088  1.0000  -8.7893   0.0000   0.2562
  14.000   1.5074   0.02774   0.02285  -0.0386  0.0088  1.0000  -8.8708   0.0000   0.2557
  14.100   1.5110   0.02828   0.02341  -0.0381  0.0087  1.0000  -8.9502   0.0000   0.2551
  14.200   1.5141   0.02885   0.02400  -0.0377  0.0087  1.0000  -9.0265   0.0000   0.2545
  14.300   1.5168   0.02946   0.02464  -0.0371  0.0086  1.0000  -9.0998   0.0000   0.2539
  14.400   1.5189   0.03013   0.02533  -0.0366  0.0086  1.0000  -9.1682   0.0000   0.2533
  14.500   1.5202   0.03087   0.02610  -0.0360  0.0085  1.0000  -9.2305   0.0000   0.2527
  14.600   1.5245   0.03138   0.02662  -0.0357  0.0085  1.0000  -9.3176   0.0000   0.2522
  14.700   1.5292   0.03185   0.02711  -0.0354  0.0085  1.0000  -9.4084   0.0000   0.2518
  14.800   1.5337   0.03234   0.02762  -0.0351  0.0085  1.0000  -9.4983   0.0000   0.2513
  14.900   1.5382   0.03284   0.02814  -0.0348  0.0084  1.0000  -9.5882   0.0000   0.2508
  15.000   1.5426   0.03335   0.02866  -0.0345  0.0084  1.0000  -9.6784   0.0000   0.2504
  15.100   1.5469   0.03388   0.02920  -0.0342  0.0084  1.0000  -9.7672   0.0000   0.2499
  15.200   1.5511   0.03442   0.02976  -0.0339  0.0084  1.0000  -9.8557   0.0000   0.2494
  15.300   1.5551   0.03498   0.03034  -0.0336  0.0083  1.0000  -9.9456   0.0000   0.2490
  15.400   1.5589   0.03557   0.03094  -0.0333  0.0083  1.0000  -10.0346   0.0000   0.2485
  15.500   1.5626   0.03615   0.03155  -0.0330  0.0083  1.0000  -10.1239   0.0000   0.2481
  15.600   1.5662   0.03677   0.03218  -0.0328  0.0083  1.0000  -10.2119   0.0000   0.2477
  15.700   1.5697   0.03739   0.03283  -0.0325  0.0082  1.0000  -10.3000   0.0000   0.2472
  15.800   1.5732   0.03802   0.03348  -0.0322  0.0082  1.0000  -10.3882   0.0000   0.2468
  15.900   1.5765   0.03868   0.03415  -0.0320  0.0082  1.0000  -10.4752   0.0000   0.2464
  16.000   1.5799   0.03933   0.03483  -0.0317  0.0082  1.0000  -10.5629   0.0000   0.2460
  16.100   1.5831   0.04001   0.03553  -0.0315  0.0081  1.0000  -10.6495   0.0000   0.2455
  16.200   1.5862   0.04071   0.03624  -0.0313  0.0081  1.0000  -10.7357   0.0000   0.2451
  16.300   1.5893   0.04140   0.03695  -0.0311  0.0081  1.0000  -10.8223   0.0000   0.2447
  16.400   1.5922   0.04212   0.03770  -0.0309  0.0081  1.0000  -10.9073   0.0000   0.2444
  16.500   1.5951   0.04285   0.03844  -0.0307  0.0080  1.0000  -10.9931   0.0000   0.2440
  16.600   1.5980   0.04359   0.03921  -0.0305  0.0080  1.0000  -11.0783   0.0000   0.2436
  16.700   1.6008   0.04435   0.03998  -0.0303  0.0080  1.0000  -11.1635   0.0000   0.2432
  16.800   1.6037   0.04509   0.04075  -0.0302  0.0079  1.0000  -11.2498   0.0000   0.2429
  16.900   1.6063   0.04588   0.04155  -0.0300  0.0079  1.0000  -11.3348   0.0000   0.2425
  17.000   1.6091   0.04665   0.04235  -0.0299  0.0079  1.0000  -11.4207   0.0000   0.2422
  17.100   1.6117   0.04745   0.04316  -0.0298  0.0079  1.0000  -11.5060   0.0000   0.2418
  17.200   1.6142   0.04826   0.04399  -0.0297  0.0078  1.0000  -11.5918   0.0000   0.2415
  17.300   1.6168   0.04907   0.04482  -0.0296  0.0078  1.0000  -11.6804   0.0000   0.2412
  17.400   1.6191   0.04992   0.04569  -0.0295  0.0078  1.0000  -11.7667   0.0000   0.2408
  17.500   1.6215   0.05077   0.04656  -0.0294  0.0077  1.0000  -11.8538   0.0000   0.2405
  17.600   1.6237   0.05165   0.04746  -0.0293  0.0077  1.0000  -11.9395   0.0000   0.2402
  17.700   1.6257   0.05255   0.04839  -0.0293  0.0077  1.0000  -12.0237   0.0000   0.2399
  17.800   1.6277   0.05346   0.04932  -0.0293  0.0077  1.0000  -12.1081   0.0000   0.2397
  17.900   1.6293   0.05443   0.05031  -0.0292  0.0076  1.0000  -12.1888   0.0000   0.2394
  18.000   1.6310   0.05539   0.05129  -0.0292  0.0076  1.0000  -12.2702   0.0000   0.2391
  18.100   1.6323   0.05641   0.05233  -0.0292  0.0076  1.0000  -12.3486   0.0000   0.2388
  18.200   1.6336   0.05743   0.05338  -0.0292  0.0076  1.0000  -12.4271   0.0000   0.2386
  18.300   1.6347   0.05849   0.05446  -0.0293  0.0075  1.0000  -12.5039   0.0000   0.2383
  18.400   1.6355   0.05959   0.05558  -0.0293  0.0075  1.0000  -12.5787   0.0000   0.2381
  18.500   1.6363   0.06070   0.05673  -0.0294  0.0075  1.0000  -12.6527   0.0000   0.2379
  18.600   1.6367   0.06188   0.05793  -0.0295  0.0075  1.0000  -12.7227   0.0000   0.2377
  18.700   1.6370   0.06307   0.05915  -0.0296  0.0074  1.0000  -12.7920   0.0000   0.2375
  18.800   1.6367   0.06435   0.06045  -0.0297  0.0074  1.0000  -12.8564   0.0000   0.2373
  18.900   1.6364   0.06564   0.06177  -0.0299  0.0074  1.0000  -12.9197   0.0000   0.2372
  19.000   1.6355   0.06702   0.06318  -0.0301  0.0074  1.0000  -12.9779   0.0000   0.2370
  19.100   1.6344   0.06845   0.06465  -0.0303  0.0073  1.0000  -13.0332   0.0000   0.2369
  19.200   1.6327   0.06996   0.06619  -0.0305  0.0073  1.0000  -13.0834   0.0000   0.2368
  19.300   1.6305   0.07158   0.06784  -0.0308  0.0073  1.0000  -13.1274   0.0000   0.2367
  19.400   1.6278   0.07326   0.06956  -0.0312  0.0073  1.0000  -13.1669   0.0000   0.2367
  19.500   1.6242   0.07508   0.07142  -0.0315  0.0072  1.0000  -13.1994   0.0000   0.2367
  19.600   1.6200   0.07702   0.07341  -0.0320  0.0072  1.0000  -13.2242   0.0000   0.2368
  19.700   1.6151   0.07910   0.07553  -0.0325  0.0072  1.0000  -13.2409   0.0000   0.2369
  19.800   1.6093   0.08132   0.07780  -0.0331  0.0071  1.0000  -13.2479   0.0000   0.2370
  19.900   1.6077   0.08296   0.07947  -0.0336  0.0071  1.0000  -13.2990   0.0000   0.2371
  20.000   1.6076   0.08438   0.08092  -0.0340  0.0071  1.0000  -13.3648   0.0000   0.2371
  20.100   1.6071   0.08587   0.08244  -0.0345  0.0071  1.0000  -13.4267   0.0000   0.2371
  20.200   1.6064   0.08739   0.08399  -0.0350  0.0071  1.0000  -13.4871   0.0000   0.2371
  20.300   1.6057   0.08895   0.08558  -0.0355  0.0071  1.0000  -13.5455   0.0000   0.2372
  20.400   1.6045   0.09058   0.08725  -0.0361  0.0071  1.0000  -13.5992   0.0000   0.2373
  20.500   1.6033   0.09221   0.08891  -0.0367  0.0071  1.0000  -13.6534   0.0000   0.2374
  20.600   1.6016   0.09396   0.09069  -0.0373  0.0071  1.0000  -13.7009   0.0000   0.2375
  20.700   1.5999   0.09571   0.09248  -0.0380  0.0070  1.0000  -13.7475   0.0000   0.2377
  20.800   1.5979   0.09751   0.09431  -0.0387  0.0070  1.0000  -13.7912   0.0000   0.2379
  20.900   1.5954   0.09940   0.09624  -0.0395  0.0070  1.0000  -13.8288   0.0000   0.2381
  21.000   1.5930   0.10130   0.09817  -0.0403  0.0070  1.0000  -13.8664   0.0000   0.2384
  21.100   1.5905   0.10321   0.10012  -0.0411  0.0070  1.0000  -13.9024   0.0000   0.2386
  21.200   1.5876   0.10522   0.10216  -0.0420  0.0070  1.0000  -13.9332   0.0000   0.2390
  21.300   1.5846   0.10725   0.10423  -0.0429  0.0070  1.0000  -13.9624   0.0000   0.2393
  21.400   1.5816   0.10929   0.10631  -0.0439  0.0070  1.0000  -13.9906   0.0000   0.2397
  21.500   1.5785   0.11137   0.10843  -0.0449  0.0070  1.0000  -14.0159   0.0000   0.2401
  21.600   1.5749   0.11353   0.11062  -0.0460  0.0070  1.0000  -14.0358   0.0000   0.2405
  21.700   1.5712   0.11571   0.11285  -0.0471  0.0069  1.0000  -14.0526   0.0000   0.2410
  21.800   1.5676   0.11792   0.11509  -0.0483  0.0069  1.0000  -14.0685   0.0000   0.2415
  21.900   1.5638   0.12014   0.11735  -0.0494  0.0069  1.0000  -14.0824   0.0000   0.2420
  22.000   1.5600   0.12241   0.11965  -0.0507  0.0069  1.0000  -14.0940   0.0000   0.2426
  22.100   1.5559   0.12471   0.12200  -0.0520  0.0069  1.0000  -14.1015   0.0000   0.2432
  22.200   1.5517   0.12706   0.12438  -0.0533  0.0069  1.0000  -14.1050   0.0000   0.2439
  22.300   1.5474   0.12943   0.12680  -0.0547  0.0069  1.0000  -14.1064   0.0000   0.2446
  22.400   1.5430   0.13183   0.12923  -0.0561  0.0069  1.0000  -14.1050   0.0000   0.2453
  22.500   1.5385   0.13424   0.13169  -0.0576  0.0069  1.0000  -14.1006   0.0000   0.2461
  22.600   1.5339   0.13669   0.13418  -0.0591  0.0069  1.0000  -14.0931   0.0000   0.2469
  22.700   1.5292   0.13917   0.13669  -0.0607  0.0068  1.0000  -14.0825   0.0000   0.2477
  22.800   1.5243   0.14169   0.13925  -0.0623  0.0068  1.0000  -14.0680   0.0000   0.2486
  22.900   1.5193   0.14425   0.14185  -0.0640  0.0068  1.0000  -14.0489   0.0000   0.2496
  23.000   1.5141   0.14686   0.14450  -0.0658  0.0068  1.0000  -14.0256   0.0000   0.2505
  23.100   1.5088   0.14949   0.14717  -0.0675  0.0068  1.0000  -14.0001   0.0000   0.2516
  23.200   1.5034   0.15215   0.14987  -0.0694  0.0068  1.0000  -13.9711   0.0000   0.2527
  23.300   1.4979   0.15484   0.15260  -0.0713  0.0068  1.0000  -13.9379   0.0000   0.2538
  23.400   1.4923   0.15755   0.15536  -0.0732  0.0068  1.0000  -13.9006   0.0000   0.2549
  23.500   1.4866   0.16029   0.15814  -0.0751  0.0068  1.0000  -13.8596   0.0000   0.2562
  23.600   1.4809   0.16305   0.16094  -0.0771  0.0068  1.0000  -13.8150   0.0000   0.2574
  23.700   1.4750   0.16584   0.16377  -0.0792  0.0068  1.0000  -13.7664   0.0000   0.2587
  23.800   1.4690   0.16868   0.16664  -0.0813  0.0067  1.0000  -13.7121   0.0000   0.2601
  23.900   1.4628   0.17158   0.16959  -0.0835  0.0067  1.0000  -13.6509   0.0000   0.2615
  24.000   1.4565   0.17451   0.17256  -0.0857  0.0067  1.0000  -13.5854   0.0000   0.2630
  24.100   1.4503   0.17745   0.17554  -0.0879  0.0067  1.0000  -13.5169   0.0000   0.2645
  24.200   1.4441   0.18037   0.17849  -0.0902  0.0067  1.0000  -13.4474   0.0000   0.2660
  24.300   1.4382   0.18325   0.18141  -0.0924  0.0067  1.0000  -13.3782   0.0000   0.2675
  24.400   1.4320   0.18620   0.18441  -0.0947  0.0067  1.0000  -13.3004   0.0000   0.2691
  24.500   1.4253   0.18927   0.18751  -0.0971  0.0067  1.0000  -13.2108   0.0000   0.2709
  24.600   1.4188   0.19231   0.19059  -0.0995  0.0067  1.0000  -13.1209   0.0000   0.2726
  24.700   1.4131   0.19521   0.19353  -0.1018  0.0067  1.0000  -13.0400   0.0000   0.2742
  24.800   1.4070   0.19818   0.19654  -0.1042  0.0066  1.0000  -12.9497   0.0000   0.2760
  24.900   1.4004   0.20130   0.19970  -0.1067  0.0066  1.0000  -12.8455   0.0000   0.2778
  25.000   1.3947   0.20425   0.20268  -0.1091  0.0066  1.0000  -12.7537   0.0000   0.2796
  25.100   1.3891   0.20716   0.20562  -0.1114  0.0066  1.0000  -12.6607   0.0000   0.2813
  25.200   1.3827   0.21030   0.20880  -0.1140  0.0066  1.0000  -12.5457   0.0000   0.2833
  25.300   1.3779   0.21310   0.21163  -0.1162  0.0066  1.0000  -12.4591   0.0000   0.2850
  25.400   1.3718   0.21621   0.21478  -0.1188  0.0066  1.0000  -12.3414   0.0000   0.2869
  25.500   1.3661   0.21925   0.21785  -0.1212  0.0066  1.0000  -12.2270   0.0000   0.2889
  25.600   1.3613   0.22206   0.22069  -0.1236  0.0065  1.0000  -12.1288   0.0000   0.2906
  25.700   1.3552   0.22524   0.22391  -0.1261  0.0065  1.0000  -11.9955   0.0000   0.2927
  25.800   1.3511   0.22793   0.22663  -0.1284  0.0065  1.0000  -11.9039   0.0000   0.2944
  25.900   1.3448   0.23124   0.22997  -0.1310  0.0065  1.0000  -11.7556   0.0000   0.2966
  26.000   1.3410   0.23385   0.23261  -0.1332  0.0065  1.0000  -11.6636   0.0000   0.2983


