xflr5 v6.47

 Calculated polar for: NACA 65(2)-415

 1 1 Reynolds number fixed          Mach number fixed         

 xtrf =   1.000 (top)        1.000 (bottom)
 Mach =   0.000     Re =     4.000 e 6     Ncrit =   9.000

  alpha     CL        CD       CDp       Cm    Top Xtr Bot Xtr   Cpmin    Chinge    XCp    
 ------- -------- --------- --------- -------- ------- ------- -------- --------- ---------
 -22.600  -0.7674   0.20944   0.20842   0.0159  1.0000  0.0058  -7.4013   0.0000   0.2333
 -22.500  -0.7659   0.20784   0.20683   0.0148  1.0000  0.0059  -7.4190   0.0000   0.2320
 -22.400  -0.7640   0.20640   0.20539   0.0137  1.0000  0.0060  -7.4199   0.0000   0.2309
 -22.300  -0.7627   0.20478   0.20376   0.0126  1.0000  0.0061  -7.4398   0.0000   0.2296
 -22.200  -1.1860   0.11012   0.10819  -0.0435  1.0000  0.0063  -16.5917   0.0000   0.1763
 -22.100  -1.2304   0.10092   0.09886  -0.0489  1.0000  0.0062  -17.2583   0.0000   0.1738
 -22.000  -1.2579   0.09481   0.09265  -0.0524  1.0000  0.0062  -17.6344   0.0000   0.1722
 -21.900  -1.2788   0.08990   0.08767  -0.0553  1.0000  0.0062  -17.8981   0.0000   0.1711
 -21.800  -1.2957   0.08570   0.08340  -0.0577  1.0000  0.0062  -18.0948   0.0000   0.1702
 -21.700  -1.3101   0.08198   0.07961  -0.0598  1.0000  0.0062  -18.2487   0.0000   0.1694
 -21.600  -1.3225   0.07863   0.07621  -0.0618  1.0000  0.0062  -18.3682   0.0000   0.1687
 -21.500  -1.3333   0.07556   0.07308  -0.0635  1.0000  0.0062  -18.4622   0.0000   0.1682
 -21.400  -1.3428   0.07275   0.07023  -0.0651  1.0000  0.0062  -18.5334   0.0000   0.1677
 -21.300  -1.3512   0.07017   0.06760  -0.0665  1.0000  0.0062  -18.5864   0.0000   0.1673
 -21.200  -1.3587   0.06776   0.06515  -0.0677  1.0000  0.0062  -18.6239   0.0000   0.1670
 -21.100  -1.3653   0.06549   0.06284  -0.0689  1.0000  0.0062  -18.6483   0.0000   0.1667
 -21.000  -1.3711   0.06339   0.06069  -0.0700  1.0000  0.0063  -18.6595   0.0000   0.1664
 -20.900  -1.3763   0.06141   0.05868  -0.0710  1.0000  0.0063  -18.6603   0.0000   0.1662
 -20.800  -1.3809   0.05954   0.05677  -0.0719  1.0000  0.0063  -18.6522   0.0000   0.1661
 -20.700  -1.3849   0.05777   0.05496  -0.0727  1.0000  0.0063  -18.6351   0.0000   0.1659
 -20.600  -1.3884   0.05609   0.05325  -0.0735  1.0000  0.0063  -18.6104   0.0000   0.1658
 -20.500  -1.3914   0.05450   0.05163  -0.0742  1.0000  0.0064  -18.5785   0.0000   0.1658
 -20.400  -1.3941   0.05299   0.05008  -0.0748  1.0000  0.0064  -18.5409   0.0000   0.1657
 -20.300  -1.3963   0.05154   0.04860  -0.0754  1.0000  0.0064  -18.4976   0.0000   0.1657
 -20.200  -1.3981   0.05016   0.04719  -0.0759  1.0000  0.0064  -18.4477   0.0000   0.1656
 -20.100  -1.3995   0.04885   0.04586  -0.0764  1.0000  0.0065  -18.3925   0.0000   0.1656
 -20.000  -1.4006   0.04760   0.04457  -0.0768  1.0000  0.0065  -18.3333   0.0000   0.1657
 -19.900  -1.4016   0.04639   0.04333  -0.0772  1.0000  0.0065  -18.2712   0.0000   0.1657
 -19.800  -1.4022   0.04522   0.04214  -0.0776  1.0000  0.0065  -18.2047   0.0000   0.1657
 -19.700  -1.4024   0.04412   0.04101  -0.0779  1.0000  0.0066  -18.1328   0.0000   0.1658
 -19.600  -1.4024   0.04305   0.03991  -0.0782  1.0000  0.0066  -18.0584   0.0000   0.1658
 -19.500  -1.4022   0.04201   0.03885  -0.0785  1.0000  0.0066  -17.9816   0.0000   0.1659
 -19.400  -1.4016   0.04104   0.03784  -0.0787  1.0000  0.0067  -17.9001   0.0000   0.1660
 -19.300  -1.4009   0.04009   0.03687  -0.0789  1.0000  0.0067  -17.8162   0.0000   0.1661
 -19.200  -1.4000   0.03917   0.03593  -0.0791  1.0000  0.0067  -17.7301   0.0000   0.1662
 -19.100  -1.3988   0.03830   0.03503  -0.0792  1.0000  0.0067  -17.6403   0.0000   0.1663
 -19.000  -1.3975   0.03745   0.03415  -0.0793  1.0000  0.0068  -17.5497   0.0000   0.1664
 -18.900  -1.3961   0.03663   0.03331  -0.0794  1.0000  0.0068  -17.4573   0.0000   0.1665
 -18.800  -1.3944   0.03585   0.03251  -0.0795  1.0000  0.0068  -17.3615   0.0000   0.1666
 -18.700  -1.3926   0.03508   0.03172  -0.0795  1.0000  0.0068  -17.2643   0.0000   0.1668
 -18.600  -1.3905   0.03435   0.03096  -0.0796  1.0000  0.0069  -17.1637   0.0000   0.1669
 -18.500  -1.3882   0.03364   0.03023  -0.0796  1.0000  0.0069  -17.0616   0.0000   0.1670
 -18.400  -1.3857   0.03296   0.02952  -0.0796  1.0000  0.0069  -16.9574   0.0000   0.1672
 -18.300  -1.3830   0.03230   0.02884  -0.0796  1.0000  0.0069  -16.8504   0.0000   0.1673
 -18.200  -1.3801   0.03166   0.02818  -0.0796  1.0000  0.0069  -16.7422   0.0000   0.1674
 -18.100  -1.3770   0.03104   0.02754  -0.0795  1.0000  0.0070  -16.6311   0.0000   0.1675
 -18.000  -1.3739   0.03043   0.02691  -0.0795  1.0000  0.0070  -16.5207   0.0000   0.1677
 -17.900  -1.3723   0.02970   0.02615  -0.0794  1.0000  0.0071  -16.4285   0.0000   0.1679
 -17.800  -1.3703   0.02900   0.02543  -0.0793  1.0000  0.0071  -16.3316   0.0000   0.1681
 -17.700  -1.3680   0.02834   0.02475  -0.0791  1.0000  0.0072  -16.2311   0.0000   0.1684
 -17.600  -1.3652   0.02773   0.02411  -0.0790  1.0000  0.0073  -16.1259   0.0000   0.1686
 -17.500  -1.3622   0.02714   0.02351  -0.0788  1.0000  0.0073  -16.0173   0.0000   0.1688
 -17.400  -1.3588   0.02658   0.02293  -0.0787  1.0000  0.0074  -15.9067   0.0000   0.1690
 -17.300  -1.3552   0.02605   0.02238  -0.0785  1.0000  0.0075  -15.7961   0.0000   0.1691
 -17.200  -1.3515   0.02554   0.02185  -0.0784  1.0000  0.0075  -15.6840   0.0000   0.1693
 -17.100  -1.3475   0.02505   0.02135  -0.0782  1.0000  0.0076  -15.5695   0.0000   0.1695
 -17.000  -1.3433   0.02458   0.02086  -0.0780  1.0000  0.0076  -15.4534   0.0000   0.1697
 -16.900  -1.3390   0.02412   0.02040  -0.0778  1.0000  0.0077  -15.3358   0.0000   0.1698
 -16.800  -1.3345   0.02369   0.01994  -0.0776  1.0000  0.0077  -15.2175   0.0000   0.1700
 -16.700  -1.3299   0.02326   0.01951  -0.0774  1.0000  0.0078  -15.0980   0.0000   0.1702
 -16.600  -1.3252   0.02285   0.01908  -0.0771  1.0000  0.0079  -14.9775   0.0000   0.1703
 -16.500  -1.3204   0.02246   0.01867  -0.0769  1.0000  0.0079  -14.8565   0.0000   0.1705
 -16.400  -1.3155   0.02207   0.01827  -0.0766  1.0000  0.0080  -14.7347   0.0000   0.1707
 -16.300  -1.3104   0.02170   0.01789  -0.0764  1.0000  0.0080  -14.6122   0.0000   0.1708
 -16.200  -1.3053   0.02135   0.01752  -0.0761  1.0000  0.0081  -14.4888   0.0000   0.1710
 -16.100  -1.3001   0.02100   0.01716  -0.0758  1.0000  0.0081  -14.3654   0.0000   0.1712
 -16.000  -1.2948   0.02067   0.01681  -0.0755  1.0000  0.0082  -14.2413   0.0000   0.1714
 -15.900  -1.2894   0.02035   0.01647  -0.0752  1.0000  0.0082  -14.1170   0.0000   0.1716
 -15.800  -1.2840   0.02003   0.01615  -0.0749  1.0000  0.0083  -13.9923   0.0000   0.1718
 -15.700  -1.2785   0.01973   0.01583  -0.0745  1.0000  0.0083  -13.8675   0.0000   0.1720
 -15.600  -1.2730   0.01944   0.01553  -0.0742  1.0000  0.0083  -13.7425   0.0000   0.1722
 -15.500  -1.2686   0.01908   0.01515  -0.0737  1.0000  0.0084  -13.6308   0.0000   0.1725
 -15.300  -1.2635   0.01842   0.01446  -0.0719  0.9914  0.0086  -13.4325   0.0000   0.1741
 -15.200  -1.2501   0.01807   0.01410  -0.0731  0.9866  0.0087  -13.2494   0.0000   0.1727
 -15.100  -1.2354   0.01774   0.01377  -0.0746  0.9835  0.0089  -13.0567   0.0000   0.1709
 -15.000  -1.2198   0.01744   0.01345  -0.0762  0.9812  0.0090  -12.8577   0.0000   0.1690
 -14.900  -1.2035   0.01714   0.01316  -0.0779  0.9795  0.0091  -12.6544   0.0000   0.1669
 -14.800  -1.1867   0.01686   0.01287  -0.0796  0.9775  0.0093  -12.4485   0.0000   0.1646
 -14.600  -1.1525   0.01634   0.01232  -0.0832  0.9721  0.0095  -12.0370   0.0000   0.1598
 -14.500  -1.1354   0.01609   0.01206  -0.0850  0.9679  0.0096  -11.8327   0.0000   0.1572
 -14.400  -1.1195   0.01587   0.01181  -0.0865  0.9608  0.0097  -11.6393   0.0000   0.1550
 -14.300  -1.1082   0.01570   0.01159  -0.0871  0.9489  0.0098  -11.4792   0.0000   0.1538
 -14.200  -1.1020   0.01554   0.01138  -0.0865  0.9364  0.0098  -11.3575   0.0000   0.1540
 -14.100  -1.0982   0.01531   0.01110  -0.0856  0.9259  0.0099  -11.2562   0.0000   0.1547
 -14.000  -1.0940   0.01511   0.01086  -0.0848  0.9176  0.0101  -11.1510   0.0000   0.1554
 -13.900  -1.0894   0.01493   0.01065  -0.0840  0.9104  0.0102  -11.0421   0.0000   0.1560
 -13.800  -1.0843   0.01475   0.01045  -0.0832  0.9043  0.0103  -10.9303   0.0000   0.1565
 -13.700  -1.0795   0.01459   0.01026  -0.0824  0.8985  0.0104  -10.8201   0.0000   0.1571
 -13.600  -1.0744   0.01443   0.01008  -0.0816  0.8930  0.0105  -10.7086   0.0000   0.1576
 -13.500  -1.0698   0.01428   0.00990  -0.0807  0.8879  0.0105  -10.6005   0.0000   0.1583
 -13.400  -1.0652   0.01414   0.00975  -0.0798  0.8828  0.0106  -10.4922   0.0000   0.1589
 -13.300  -1.0601   0.01403   0.00961  -0.0790  0.8783  0.0107  -10.3814   0.0000   0.1596
 -13.200  -1.0531   0.01391   0.00947  -0.0784  0.8742  0.0108  -10.2579   0.0000   0.1597
 -13.100  -1.0455   0.01379   0.00933  -0.0780  0.8702  0.0109  -10.1305   0.0000   0.1597
 -13.000  -1.0376   0.01367   0.00919  -0.0777  0.8667  0.0110  -10.0015   0.0000   0.1596
 -12.900  -1.0294   0.01355   0.00906  -0.0773  0.8630  0.0111  -9.8720   0.0000   0.1595
 -12.800  -1.0213   0.01344   0.00893  -0.0770  0.8594  0.0112  -9.7433   0.0000   0.1594
 -12.700  -1.0128   0.01332   0.00879  -0.0767  0.8562  0.0112  -9.6163   0.0000   0.1591
 -12.600  -1.0043   0.01321   0.00867  -0.0764  0.8527  0.0113  -9.4902   0.0000   0.1589
 -12.500  -0.9957   0.01311   0.00855  -0.0762  0.8493  0.0113  -9.3646   0.0000   0.1587
 -12.400  -0.9868   0.01301   0.00843  -0.0759  0.8463  0.0114  -9.2375   0.0000   0.1583
 -12.300  -0.9782   0.01288   0.00828  -0.0757  0.8430  0.0115  -9.1151   0.0000   0.1581
 -12.200  -0.9704   0.01270   0.00809  -0.0753  0.8397  0.0117  -8.9998   0.0000   0.1580
 -12.100  -0.9619   0.01256   0.00793  -0.0750  0.8369  0.0118  -8.8786   0.0000   0.1577
 -12.000  -0.9530   0.01244   0.00780  -0.0748  0.8339  0.0119  -8.7546   0.0000   0.1573
 -11.900  -0.9439   0.01233   0.00768  -0.0746  0.8308  0.0121  -8.6301   0.0000   0.1569
 -11.800  -0.9347   0.01223   0.00757  -0.0744  0.8280  0.0122  -8.5051   0.0000   0.1564
 -11.700  -0.9252   0.01213   0.00747  -0.0743  0.8254  0.0123  -8.3791   0.0000   0.1558
 -11.600  -0.9157   0.01204   0.00736  -0.0742  0.8225  0.0124  -8.2539   0.0000   0.1553
 -11.500  -0.9062   0.01195   0.00726  -0.0740  0.8196  0.0125  -8.1297   0.0000   0.1547
 -11.400  -0.8966   0.01186   0.00716  -0.0739  0.8171  0.0126  -8.0056   0.0000   0.1541
 -11.300  -0.8869   0.01176   0.00706  -0.0738  0.8145  0.0127  -7.8819   0.0000   0.1534
 -11.200  -0.8772   0.01167   0.00695  -0.0737  0.8117  0.0128  -7.7592   0.0000   0.1527
 -11.000  -0.8576   0.01150   0.00675  -0.0734  0.8067  0.0130  -7.5149   0.0000   0.1513
 -10.900  -0.8477   0.01141   0.00666  -0.0734  0.8042  0.0130  -7.3929   0.0000   0.1505
 -10.800  -0.8377   0.01133   0.00656  -0.0733  0.8015  0.0131  -7.2717   0.0000   0.1496
 -10.600  -0.8175   0.01118   0.00639  -0.0732  0.7967  0.0132  -7.0301   0.0000   0.1478
 -10.500  -0.8084   0.01101   0.00620  -0.0730  0.7941  0.0134  -6.9196   0.0000   0.1471
 -10.400  -0.7990   0.01087   0.00605  -0.0728  0.7915  0.0136  -6.8073   0.0000   0.1464
 -10.200  -0.7792   0.01067   0.00583  -0.0727  0.7867  0.0139  -6.5840   0.0000   0.1444
 -10.100  -0.7690   0.01058   0.00573  -0.0726  0.7843  0.0140  -6.4714   0.0000   0.1433
 -10.000  -0.7587   0.01050   0.00565  -0.0726  0.7817  0.0141  -6.3593   0.0000   0.1422
  -9.900  -0.7485   0.01042   0.00556  -0.0725  0.7792  0.0142  -6.2482   0.0000   0.1410
  -9.800  -0.7382   0.01034   0.00547  -0.0725  0.7771  0.0143  -6.1374   0.0000   0.1398
  -9.700  -0.7278   0.01026   0.00539  -0.0725  0.7747  0.0144  -6.0274   0.0000   0.1385
  -9.600  -0.7174   0.01018   0.00530  -0.0725  0.7722  0.0145  -5.9185   0.0000   0.1372
  -9.500  -0.7071   0.01011   0.00521  -0.0724  0.7697  0.0146  -5.8105   0.0000   0.1358
  -9.400  -0.6966   0.01003   0.00513  -0.0724  0.7675  0.0148  -5.7029   0.0000   0.1344
  -9.300  -0.6861   0.00996   0.00504  -0.0724  0.7653  0.0148  -5.5955   0.0000   0.1328
  -9.200  -0.6755   0.00989   0.00496  -0.0724  0.7628  0.0149  -5.4888   0.0000   0.1312
  -9.100  -0.6650   0.00982   0.00489  -0.0724  0.7604  0.0150  -5.3826   0.0000   0.1296
  -9.000  -0.6543   0.00977   0.00482  -0.0725  0.7582  0.0151  -5.2768   0.0000   0.1279
  -8.900  -0.6435   0.00971   0.00475  -0.0725  0.7561  0.0151  -5.1724   0.0000   0.1260
  -8.800  -0.6331   0.00961   0.00465  -0.0725  0.7537  0.0153  -5.0751   0.0000   0.1242
  -8.700  -0.6231   0.00947   0.00449  -0.0724  0.7513  0.0155  -4.9829   0.0000   0.1226
  -8.500  -0.6023   0.00928   0.00428  -0.0724  0.7470  0.0158  -4.7921   0.0000   0.1187
  -8.400  -0.5916   0.00919   0.00419  -0.0724  0.7449  0.0160  -4.6958   0.0000   0.1166
  -8.300  -0.5809   0.00912   0.00411  -0.0724  0.7426  0.0161  -4.5998   0.0000   0.1143
  -8.200  -0.5702   0.00906   0.00404  -0.0724  0.7404  0.0162  -4.5043   0.0000   0.1120
  -8.100  -0.5594   0.00899   0.00397  -0.0725  0.7383  0.0164  -4.4094   0.0000   0.1095
  -8.000  -0.5485   0.00893   0.00390  -0.0725  0.7364  0.0165  -4.3149   0.0000   0.1068
  -7.900  -0.5376   0.00886   0.00383  -0.0726  0.7343  0.0166  -4.2230   0.0000   0.1041
  -7.800  -0.5268   0.00880   0.00376  -0.0726  0.7322  0.0168  -4.1345   0.0000   0.1013
  -7.700  -0.5160   0.00874   0.00368  -0.0727  0.7301  0.0169  -4.0469   0.0000   0.0983
  -7.600  -0.5051   0.00867   0.00361  -0.0727  0.7282  0.0170  -3.9597   0.0000   0.0952
  -7.500  -0.4940   0.00861   0.00355  -0.0728  0.7264  0.0171  -3.8725   0.0000   0.0919
  -7.400  -0.4830   0.00856   0.00349  -0.0729  0.7244  0.0172  -3.7859   0.0000   0.0884
  -7.300  -0.4720   0.00851   0.00343  -0.0729  0.7224  0.0173  -3.7000   0.0000   0.0847
  -7.200  -0.4609   0.00846   0.00337  -0.0730  0.7204  0.0173  -3.6150   0.0000   0.0809
  -7.100  -0.4502   0.00836   0.00326  -0.0730  0.7186  0.0175  -3.5382   0.0000   0.0770
  -7.000  -0.4394   0.00827   0.00316  -0.0731  0.7169  0.0178  -3.4613   0.0000   0.0729
  -6.900  -0.4284   0.00819   0.00308  -0.0731  0.7150  0.0180  -3.3834   0.0000   0.0685
  -6.800  -0.4174   0.00813   0.00301  -0.0732  0.7131  0.0182  -3.3053   0.0000   0.0638
  -6.700  -0.4064   0.00807   0.00295  -0.0733  0.7112  0.0184  -3.2274   0.0000   0.0589
  -6.500  -0.3841   0.00796   0.00283  -0.0734  0.7078  0.0187  -3.0764   0.0000   0.0479
  -6.400  -0.3729   0.00790   0.00277  -0.0735  0.7062  0.0189  -3.0038   0.0000   0.0419
  -6.300  -0.3617   0.00785   0.00272  -0.0736  0.7044  0.0191  -2.9318   0.0000   0.0354
  -6.200  -0.3506   0.00780   0.00266  -0.0737  0.7026  0.0192  -2.8606   0.0000   0.0286
  -6.100  -0.3394   0.00775   0.00261  -0.0738  0.7008  0.0194  -2.7899   0.0000   0.0214
  -6.000  -0.3282   0.00771   0.00256  -0.0739  0.6990  0.0195  -2.7204   0.0000   0.0136
  -5.900  -0.3168   0.00766   0.00251  -0.0740  0.6976  0.0197  -2.6534   0.0000   0.0050
  -5.800  -0.3055   0.00761   0.00245  -0.0741  0.6959  0.0198  -2.5880   0.0000  -0.0041
  -5.700  -0.2944   0.00754   0.00237  -0.0742  0.6942  0.0202  -2.5254   0.0000  -0.0137
  -5.600  -0.2832   0.00748   0.00231  -0.0743  0.6925  0.0205  -2.4618   0.0000  -0.0241
  -5.500  -0.2720   0.00743   0.00226  -0.0744  0.6908  0.0208  -2.3981   0.0000  -0.0354
  -5.400  -0.2607   0.00738   0.00221  -0.0745  0.6891  0.0211  -2.3346   0.0000  -0.0478
  -5.300  -0.2493   0.00733   0.00216  -0.0746  0.6878  0.0214  -2.2712   0.0000  -0.0616
  -5.200  -0.2380   0.00729   0.00212  -0.0747  0.6862  0.0217  -2.2115   0.0000  -0.0766
  -5.100  -0.2266   0.00725   0.00207  -0.0748  0.6845  0.0220  -2.1527   0.0000  -0.0932
  -5.000  -0.2152   0.00721   0.00203  -0.0749  0.6829  0.0222  -2.0943   0.0000  -0.1115
  -4.900  -0.2038   0.00718   0.00199  -0.0751  0.6812  0.0224  -2.0364   0.0000  -0.1318
  -4.700  -0.1812   0.00707   0.00189  -0.0753  0.6782  0.0237  -1.9240   0.0000  -0.1800
  -4.600  -0.1697   0.00703   0.00185  -0.0754  0.6768  0.0243  -1.8673   0.0000  -0.2094
  -4.500  -0.1583   0.00699   0.00181  -0.0755  0.6752  0.0248  -1.8112   0.0000  -0.2430
  -4.400  -0.1468   0.00695   0.00177  -0.0757  0.6736  0.0252  -1.7555   0.0000  -0.2818
  -4.300  -0.1354   0.00691   0.00173  -0.0758  0.6720  0.0261  -1.7014   0.0000  -0.3268
  -4.100  -0.1126   0.00683   0.00165  -0.0760  0.6690  0.0280  -1.5930   0.0000  -0.4446
  -4.000  -0.1011   0.00679   0.00162  -0.0762  0.6677  0.0287  -1.5391   0.0000  -0.5247
  -3.900  -0.0896   0.00674   0.00158  -0.0763  0.6662  0.0303  -1.4864   0.0000  -0.6246
  -3.800  -0.0781   0.00670   0.00154  -0.0765  0.6647  0.0316  -1.4362   0.0000  -0.7539
  -3.700  -0.0667   0.00666   0.00151  -0.0766  0.6631  0.0334  -1.3872   0.0000  -0.9274
  -3.600  -0.0553   0.00662   0.00147  -0.0767  0.6616  0.0356  -1.3386   0.0000  -1.1715
  -3.400  -0.0324   0.00652   0.00140  -0.0770  0.6588  0.0437  -1.2427   0.0000  -2.1790
  -3.300  -0.0210   0.00645   0.00136  -0.0771  0.6575  0.0510  -1.1955   0.0000  -3.5097
  -3.200  -0.0096   0.00637   0.00132  -0.0773  0.6561  0.0618  -1.1490   0.0000  -7.9734
  -3.100   0.0018   0.00629   0.00128  -0.0774  0.6546  0.0742  -1.1029   0.0000  44.8833
  -3.000   0.0131   0.00620   0.00124  -0.0776  0.6532  0.0887  -1.0574   0.0000   6.2953
  -2.900   0.0243   0.00610   0.00119  -0.0777  0.6517  0.1074  -1.0126   0.0000   3.5034
  -2.700   0.0469   0.00587   0.00110  -0.0780  0.6490  0.1532  -0.9241   0.0000   1.9425
  -2.600   0.0582   0.00575   0.00106  -0.0782  0.6478  0.1787  -0.8805   0.0000   1.6149
  -2.500   0.0695   0.00561   0.00101  -0.0784  0.6465  0.2077  -0.8373   0.0000   1.3948
  -2.400   0.0808   0.00547   0.00096  -0.0786  0.6451  0.2391  -0.7947   0.0000   1.2366
  -2.300   0.0921   0.00533   0.00092  -0.0788  0.6437  0.2707  -0.7524   0.0000   1.1171
  -2.200   0.1033   0.00519   0.00087  -0.0790  0.6423  0.3046  -0.7107   0.0000   1.0239
  -2.000   0.1259   0.00487   0.00078  -0.0794  0.6397  0.3801  -0.6329   0.0000   0.8878
  -1.900   0.1372   0.00468   0.00073  -0.0796  0.6385  0.4241  -0.5947   0.0000   0.8365
  -1.800   0.1486   0.00454   0.00069  -0.0799  0.6373  0.4606  -0.5915   0.0000   0.7925
  -1.700   0.1602   0.00444   0.00067  -0.0801  0.6360  0.4843  -0.5971   0.0000   0.7542
  -1.600   0.1718   0.00440   0.00065  -0.0803  0.6347  0.4997  -0.6027   0.0000   0.7208
  -1.500   0.1834   0.00435   0.00065  -0.0804  0.6333  0.5137  -0.6083   0.0000   0.6916
  -1.400   0.1951   0.00431   0.00064  -0.0806  0.6320  0.5286  -0.6140   0.0000   0.6658
  -1.200   0.2184   0.00424   0.00064  -0.0810  0.6296  0.5556  -0.6255   0.0000   0.6224
  -1.100   0.2302   0.00421   0.00064  -0.0812  0.6284  0.5636  -0.6314   0.0000   0.6039
  -1.000   0.2420   0.00420   0.00064  -0.0813  0.6273  0.5699  -0.6372   0.0000   0.5872
  -0.900   0.2538   0.00419   0.00064  -0.0815  0.6260  0.5760  -0.6430   0.0000   0.5720
  -0.800   0.2655   0.00419   0.00064  -0.0817  0.6247  0.5807  -0.6489   0.0000   0.5581
  -0.700   0.2772   0.00418   0.00064  -0.0819  0.6235  0.5859  -0.6547   0.0000   0.5455
  -0.600   0.2890   0.00419   0.00065  -0.0820  0.6221  0.5901  -0.6605   0.0000   0.5338
  -0.400   0.3125   0.00418   0.00066  -0.0824  0.6198  0.5972  -0.6721   0.0000   0.5131
  -0.300   0.3243   0.00418   0.00066  -0.0826  0.6187  0.6000  -0.6781   0.0000   0.5039
  -0.200   0.3361   0.00418   0.00066  -0.0827  0.6176  0.6030  -0.6841   0.0000   0.4953
  -0.100   0.3479   0.00418   0.00067  -0.0829  0.6163  0.6058  -0.6901   0.0000   0.4873
   0.000   0.3597   0.00419   0.00067  -0.0831  0.6149  0.6082  -0.6960   0.0000   0.4798
   0.100   0.3714   0.00419   0.00068  -0.0832  0.6133  0.6106  -0.7020   0.0000   0.4728
   0.200   0.3830   0.00420   0.00069  -0.0834  0.6116  0.6128  -0.7079   0.0000   0.4662
   0.300   0.3948   0.00421   0.00069  -0.0836  0.6100  0.6146  -0.7138   0.0000   0.4600
   0.400   0.4066   0.00421   0.00070  -0.0837  0.6082  0.6160  -0.7199   0.0000   0.4542
   0.500   0.4183   0.00422   0.00070  -0.0839  0.6062  0.6173  -0.7259   0.0000   0.4487
   0.600   0.4300   0.00424   0.00071  -0.0841  0.6040  0.6183  -0.7320   0.0000   0.4435
   0.700   0.4416   0.00425   0.00072  -0.0842  0.6018  0.6197  -0.7380   0.0000   0.4385
   0.800   0.4534   0.00425   0.00073  -0.0844  0.6000  0.6210  -0.7441   0.0000   0.4338
   0.900   0.4651   0.00426   0.00073  -0.0845  0.5980  0.6223  -0.7503   0.0000   0.4294
   1.000   0.4768   0.00427   0.00074  -0.0847  0.5959  0.6237  -0.7563   0.0000   0.4251
   1.100   0.4884   0.00428   0.00075  -0.0848  0.5936  0.6250  -0.7624   0.0000   0.4211
   1.200   0.5000   0.00430   0.00076  -0.0850  0.5913  0.6263  -0.7684   0.0000   0.4172
   1.300   0.5118   0.00431   0.00077  -0.0852  0.5891  0.6275  -0.7747   0.0000   0.4136
   1.400   0.5235   0.00433   0.00078  -0.0853  0.5864  0.6285  -0.7809   0.0000   0.4100
   1.500   0.5350   0.00434   0.00079  -0.0854  0.5836  0.6300  -0.7871   0.0000   0.4067
   1.600   0.5466   0.00436   0.00080  -0.0856  0.5811  0.6314  -0.7932   0.0000   0.4034
   1.700   0.5583   0.00437   0.00082  -0.0858  0.5787  0.6328  -0.7995   0.0000   0.4004
   1.800   0.5699   0.00438   0.00083  -0.0859  0.5762  0.6342  -0.8057   0.0000   0.3974
   1.900   0.5814   0.00441   0.00084  -0.0860  0.5729  0.6356  -0.8118   0.0000   0.3945
   2.000   0.5930   0.00442   0.00086  -0.0862  0.5695  0.6369  -0.8181   0.0000   0.3918
   2.100   0.6045   0.00445   0.00087  -0.0863  0.5652  0.6381  -0.8244   0.0000   0.3891
   2.300   0.6272   0.00452   0.00091  -0.0865  0.5546  0.6409  -0.8368   0.0000   0.3841
   2.400   0.6384   0.00456   0.00093  -0.0866  0.5469  0.6424  -0.8430   0.0000   0.3817
   2.500   0.6495   0.00460   0.00096  -0.0866  0.5393  0.6439  -0.8491   0.0000   0.3793
   2.600   0.6606   0.00465   0.00098  -0.0867  0.5325  0.6454  -0.8552   0.0000   0.3771
   2.700   0.6717   0.00471   0.00101  -0.0867  0.5250  0.6468  -0.8955   0.0000   0.3749
   2.800   0.6827   0.00477   0.00104  -0.0868  0.5163  0.6481  -0.9376   0.0000   0.3728
   3.000   0.7039   0.00494   0.00113  -0.0867  0.4913  0.6510  -1.0258   0.0000   0.3687
   3.100   0.7135   0.00509   0.00120  -0.0865  0.4695  0.6526  -1.0739   0.0000   0.3666
   3.200   0.7224   0.00530   0.00129  -0.0862  0.4421  0.6542  -1.1209   0.0000   0.3646
   3.300   0.7309   0.00553   0.00140  -0.0858  0.4118  0.6558  -1.1674   0.0000   0.3626
   3.400   0.7394   0.00578   0.00152  -0.0855  0.3821  0.6572  -1.2141   0.0000   0.3606
   3.500   0.7481   0.00600   0.00163  -0.0851  0.3546  0.6586  -1.2617   0.0000   0.3587
   3.600   0.7569   0.00621   0.00174  -0.0848  0.3294  0.6602  -1.3103   0.0000   0.3569
   3.700   0.7656   0.00643   0.00185  -0.0845  0.3035  0.6618  -1.3589   0.0000   0.3551
   3.800   0.7742   0.00665   0.00197  -0.0841  0.2771  0.6635  -1.4079   0.0000   0.3533
   4.000   0.7913   0.00711   0.00221  -0.0834  0.2257  0.6668  -1.5065   0.0000   0.3499
   4.100   0.8000   0.00732   0.00232  -0.0831  0.2026  0.6683  -1.5571   0.0000   0.3482
   4.300   0.8177   0.00771   0.00254  -0.0824  0.1624  0.6715  -1.6644   0.0000   0.3450
   4.400   0.8268   0.00788   0.00265  -0.0822  0.1452  0.6733  -1.7204   0.0000   0.3435
   4.500   0.8359   0.00805   0.00275  -0.0819  0.1289  0.6750  -1.7769   0.0000   0.3419
   4.600   0.8450   0.00823   0.00286  -0.0816  0.1133  0.6767  -1.8338   0.0000   0.3405
   4.700   0.8539   0.00840   0.00297  -0.0813  0.0985  0.6783  -1.8910   0.0000   0.3390
   4.900   0.8725   0.00871   0.00317  -0.0808  0.0755  0.6816  -2.0089   0.0000   0.3362
   5.000   0.8820   0.00884   0.00327  -0.0806  0.0666  0.6834  -2.0695   0.0000   0.3349
   5.100   0.8914   0.00898   0.00337  -0.0804  0.0577  0.6853  -2.1302   0.0000   0.3335
   5.200   0.9006   0.00913   0.00348  -0.0802  0.0490  0.6870  -2.1909   0.0000   0.3322
   5.300   0.9101   0.00926   0.00357  -0.0799  0.0421  0.6887  -2.2529   0.0000   0.3309
   5.400   0.9196   0.00938   0.00367  -0.0797  0.0367  0.6903  -2.3159   0.0000   0.3297
   5.500   0.9294   0.00949   0.00376  -0.0796  0.0329  0.6922  -2.3801   0.0000   0.3285
   5.700   0.9493   0.00967   0.00393  -0.0793  0.0284  0.6959  -2.5118   0.0000   0.3262
   5.800   0.9592   0.00976   0.00401  -0.0792  0.0267  0.6977  -2.5784   0.0000   0.3251
   5.900   0.9693   0.00984   0.00408  -0.0791  0.0257  0.6994  -2.6464   0.0000   0.3240
   6.000   0.9793   0.00993   0.00416  -0.0790  0.0246  0.7012  -2.7146   0.0000   0.3230
   6.100   0.9891   0.01002   0.00425  -0.0788  0.0234  0.7032  -2.7828   0.0000   0.3219
   6.200   0.9992   0.01009   0.00433  -0.0787  0.0228  0.7052  -2.8525   0.0000   0.3209
   6.300   1.0092   0.01017   0.00441  -0.0786  0.0220  0.7071  -2.9224   0.0000   0.3199
   6.400   1.0190   0.01026   0.00449  -0.0784  0.0211  0.7089  -2.9921   0.0000   0.3188
   6.600   1.0387   0.01043   0.00466  -0.0782  0.0197  0.7127  -3.1338   0.0000   0.3169
   6.700   1.0484   0.01051   0.00474  -0.0780  0.0191  0.7147  -3.2051   0.0000   0.3159
   6.800   1.0580   0.01061   0.00483  -0.0778  0.0183  0.7168  -3.2762   0.0000   0.3149
   6.900   1.0676   0.01070   0.00492  -0.0776  0.0177  0.7188  -3.3481   0.0000   0.3140
   7.100   1.0868   0.01087   0.00510  -0.0773  0.0166  0.7228  -3.4934   0.0000   0.3121
   7.200   1.0961   0.01097   0.00520  -0.0770  0.0160  0.7250  -3.5656   0.0000   0.3112
   7.300   1.1055   0.01107   0.00530  -0.0768  0.0155  0.7272  -3.6391   0.0000   0.3102
   7.400   1.1150   0.01115   0.00539  -0.0766  0.0152  0.7293  -3.7170   0.0000   0.3093
   7.600   1.1334   0.01135   0.00558  -0.0761  0.0144  0.7335  -3.8726   0.0000   0.3075
   7.700   1.1423   0.01145   0.00569  -0.0758  0.0140  0.7358  -3.9499   0.0000   0.3066
   7.800   1.1511   0.01157   0.00581  -0.0755  0.0135  0.7381  -4.0261   0.0000   0.3057
   7.900   1.1602   0.01166   0.00590  -0.0752  0.0134  0.7403  -4.1057   0.0000   0.3048
   8.000   1.1692   0.01175   0.00601  -0.0749  0.0132  0.7425  -4.1851   0.0000   0.3039
   8.100   1.1781   0.01185   0.00611  -0.0746  0.0129  0.7450  -4.2643   0.0000   0.3031
   8.200   1.1867   0.01196   0.00622  -0.0743  0.0127  0.7475  -4.3434   0.0000   0.3022
   8.300   1.1948   0.01207   0.00633  -0.0738  0.0124  0.7500  -4.4210   0.0000   0.3012
   8.400   1.2022   0.01217   0.00644  -0.0732  0.0122  0.7523  -4.4960   0.0000   0.3002
   8.500   1.2090   0.01229   0.00657  -0.0725  0.0119  0.7550  -4.5680   0.0000   0.2992
   8.600   1.2159   0.01241   0.00670  -0.0718  0.0117  0.7578  -4.6409   0.0000   0.2981
   8.700   1.2234   0.01251   0.00681  -0.0713  0.0116  0.7604  -4.7182   0.0000   0.2972
   8.800   1.2309   0.01262   0.00693  -0.0707  0.0115  0.7629  -4.7956   0.0000   0.2962
   8.900   1.2382   0.01273   0.00705  -0.0701  0.0114  0.7658  -4.8727   0.0000   0.2952
   9.000   1.2455   0.01285   0.00718  -0.0695  0.0112  0.7687  -4.9500   0.0000   0.2943
   9.100   1.2526   0.01298   0.00731  -0.0689  0.0111  0.7714  -5.0274   0.0000   0.2934
   9.200   1.2597   0.01310   0.00745  -0.0683  0.0110  0.7742  -5.1049   0.0000   0.2924
   9.300   1.2667   0.01324   0.00759  -0.0677  0.0109  0.7773  -5.1825   0.0000   0.2915
   9.400   1.2737   0.01338   0.00774  -0.0671  0.0108  0.7804  -5.2601   0.0000   0.2906
   9.500   1.2805   0.01352   0.00789  -0.0665  0.0106  0.7833  -5.3377   0.0000   0.2897
   9.600   1.2872   0.01367   0.00806  -0.0658  0.0105  0.7866  -5.4147   0.0000   0.2888
   9.700   1.2937   0.01384   0.00823  -0.0652  0.0104  0.7899  -5.4905   0.0000   0.2879
   9.800   1.2999   0.01402   0.00842  -0.0645  0.0102  0.7929  -5.5646   0.0000   0.2869
   9.900   1.3059   0.01421   0.00864  -0.0638  0.0101  0.7963  -5.6367   0.0000   0.2860
  10.000   1.3125   0.01438   0.00882  -0.0631  0.0100  0.7996  -5.7141   0.0000   0.2851
  10.200   1.3263   0.01469   0.00916  -0.0620  0.0099  0.8062  -5.8752   0.0000   0.2835
  10.300   1.3331   0.01486   0.00934  -0.0615  0.0099  0.8097  -5.9558   0.0000   0.2827
  10.400   1.3398   0.01503   0.00952  -0.0609  0.0098  0.8130  -6.0364   0.0000   0.2819
  10.500   1.3464   0.01521   0.00972  -0.0604  0.0098  0.8167  -6.1169   0.0000   0.2811
  10.600   1.3530   0.01539   0.00991  -0.0598  0.0097  0.8204  -6.1976   0.0000   0.2803
  10.700   1.3595   0.01558   0.01012  -0.0593  0.0097  0.8239  -6.2789   0.0000   0.2795
  10.800   1.3660   0.01577   0.01032  -0.0587  0.0096  0.8277  -6.3638   0.0000   0.2788
  10.900   1.3724   0.01597   0.01054  -0.0581  0.0095  0.8315  -6.4488   0.0000   0.2780
  11.000   1.3788   0.01617   0.01076  -0.0576  0.0095  0.8353  -6.5338   0.0000   0.2772
  11.100   1.3851   0.01638   0.01098  -0.0570  0.0094  0.8394  -6.6192   0.0000   0.2765
  11.200   1.3913   0.01659   0.01121  -0.0565  0.0094  0.8432  -6.7047   0.0000   0.2757
  11.300   1.3975   0.01681   0.01145  -0.0559  0.0093  0.8475  -6.7904   0.0000   0.2750
  11.400   1.4036   0.01704   0.01169  -0.0554  0.0092  0.8519  -6.8761   0.0000   0.2742
  11.500   1.4096   0.01726   0.01194  -0.0548  0.0092  0.8565  -6.9615   0.0000   0.2735
  11.600   1.4156   0.01750   0.01219  -0.0542  0.0091  0.8614  -7.0474   0.0000   0.2728
  11.700   1.4214   0.01775   0.01246  -0.0537  0.0091  0.8665  -7.1327   0.0000   0.2720
  11.800   1.4272   0.01800   0.01273  -0.0531  0.0090  0.8720  -7.2182   0.0000   0.2713
  11.900   1.4327   0.01826   0.01302  -0.0525  0.0089  0.8782  -7.3024   0.0000   0.2706
  12.000   1.4380   0.01853   0.01332  -0.0519  0.0089  0.8847  -7.3856   0.0000   0.2698
  12.100   1.4431   0.01882   0.01363  -0.0512  0.0088  0.8921  -7.4673   0.0000   0.2691
  12.200   1.4478   0.01913   0.01397  -0.0505  0.0087  0.9004  -7.5464   0.0000   0.2683
  12.300   1.4522   0.01946   0.01433  -0.0498  0.0086  0.9093  -7.6231   0.0000   0.2675
  12.400   1.4560   0.01981   0.01472  -0.0490  0.0086  0.9186  -7.6966   0.0000   0.2667
  12.500   1.4600   0.02014   0.01509  -0.0482  0.0085  0.9285  -7.7718   0.0000   0.2659
  12.600   1.4646   0.02039   0.01539  -0.0475  0.0085  0.9409  -7.8537   0.0000   0.2651
  12.700   1.4712   0.02061   0.01569  -0.0471  0.0085  0.9708  -7.9469   0.0000   0.2646
  13.100   1.4933   0.02184   0.01697  -0.0452  0.0084  1.0000  -8.2988   0.0000   0.2621
  13.200   1.4988   0.02218   0.01732  -0.0448  0.0084  1.0000  -8.3877   0.0000   0.2615
  13.300   1.5043   0.02252   0.01767  -0.0444  0.0083  1.0000  -8.4785   0.0000   0.2609
  13.400   1.5097   0.02287   0.01803  -0.0439  0.0083  1.0000  -8.5705   0.0000   0.2603
  13.500   1.5150   0.02323   0.01840  -0.0435  0.0083  1.0000  -8.6627   0.0000   0.2598
  13.600   1.5203   0.02359   0.01878  -0.0431  0.0083  1.0000  -8.7550   0.0000   0.2592
  13.700   1.5254   0.02397   0.01917  -0.0427  0.0082  1.0000  -8.8468   0.0000   0.2586
  13.800   1.5306   0.02434   0.01956  -0.0422  0.0082  1.0000  -8.9393   0.0000   0.2581
  13.900   1.5357   0.02474   0.01996  -0.0418  0.0082  1.0000  -9.0311   0.0000   0.2575
  14.000   1.5406   0.02513   0.02037  -0.0414  0.0081  1.0000  -9.1229   0.0000   0.2570
  14.100   1.5456   0.02553   0.02078  -0.0410  0.0081  1.0000  -9.2152   0.0000   0.2564
  14.200   1.5504   0.02595   0.02121  -0.0406  0.0081  1.0000  -9.3070   0.0000   0.2559
  14.300   1.5553   0.02636   0.02163  -0.0402  0.0080  1.0000  -9.3997   0.0000   0.2553
  14.400   1.5602   0.02678   0.02206  -0.0398  0.0080  1.0000  -9.4926   0.0000   0.2548
  14.500   1.5649   0.02721   0.02251  -0.0394  0.0080  1.0000  -9.5852   0.0000   0.2543
  14.600   1.5697   0.02764   0.02295  -0.0390  0.0079  1.0000  -9.6788   0.0000   0.2538
  14.700   1.5743   0.02809   0.02340  -0.0387  0.0079  1.0000  -9.7715   0.0000   0.2532
  14.800   1.5789   0.02854   0.02387  -0.0383  0.0079  1.0000  -9.8641   0.0000   0.2527
  14.900   1.5835   0.02899   0.02434  -0.0379  0.0078  1.0000  -9.9572   0.0000   0.2522
  15.000   1.5878   0.02947   0.02483  -0.0375  0.0078  1.0000  -10.0490   0.0000   0.2517
  15.100   1.5922   0.02995   0.02532  -0.0372  0.0078  1.0000  -10.1411   0.0000   0.2512
  15.200   1.5964   0.03045   0.02583  -0.0368  0.0077  1.0000  -10.2327   0.0000   0.2507
  15.300   1.6006   0.03096   0.02635  -0.0365  0.0077  1.0000  -10.3238   0.0000   0.2502
  15.400   1.6048   0.03146   0.02687  -0.0361  0.0077  1.0000  -10.4174   0.0000   0.2497
  15.500   1.6087   0.03200   0.02742  -0.0358  0.0077  1.0000  -10.5108   0.0000   0.2493
  15.600   1.6126   0.03254   0.02797  -0.0355  0.0076  1.0000  -10.6041   0.0000   0.2488
  15.700   1.6165   0.03309   0.02854  -0.0351  0.0076  1.0000  -10.6974   0.0000   0.2483
  15.800   1.6201   0.03367   0.02913  -0.0348  0.0076  1.0000  -10.7892   0.0000   0.2478
  15.900   1.6238   0.03425   0.02973  -0.0345  0.0075  1.0000  -10.8815   0.0000   0.2474
  16.000   1.6272   0.03486   0.03035  -0.0342  0.0075  1.0000  -10.9720   0.0000   0.2469
  16.100   1.6304   0.03548   0.03100  -0.0339  0.0075  1.0000  -11.0615   0.0000   0.2465
  16.200   1.6336   0.03612   0.03165  -0.0335  0.0074  1.0000  -11.1504   0.0000   0.2460
  16.300   1.6363   0.03680   0.03235  -0.0332  0.0074  1.0000  -11.2363   0.0000   0.2456
  16.400   1.6391   0.03749   0.03306  -0.0329  0.0074  1.0000  -11.3218   0.0000   0.2451
  16.500   1.6413   0.03824   0.03383  -0.0326  0.0073  1.0000  -11.4033   0.0000   0.2447
  16.600   1.6432   0.03903   0.03464  -0.0323  0.0073  1.0000  -11.4822   0.0000   0.2442
  16.700   1.6446   0.03987   0.03551  -0.0320  0.0072  1.0000  -11.5565   0.0000   0.2438
  16.800   1.6453   0.04078   0.03645  -0.0316  0.0072  1.0000  -11.6254   0.0000   0.2434
  16.900   1.6453   0.04178   0.03748  -0.0313  0.0071  1.0000  -11.6873   0.0000   0.2429
  17.000   1.6474   0.04258   0.03831  -0.0311  0.0071  1.0000  -11.7682   0.0000   0.2425
  17.100   1.6509   0.04325   0.03899  -0.0309  0.0071  1.0000  -11.8632   0.0000   0.2422
  17.200   1.6542   0.04395   0.03971  -0.0308  0.0071  1.0000  -11.9566   0.0000   0.2418
  17.300   1.6574   0.04465   0.04043  -0.0306  0.0071  1.0000  -12.0528   0.0000   0.2414
  17.400   1.6605   0.04538   0.04118  -0.0305  0.0071  1.0000  -12.1469   0.0000   0.2411
  17.500   1.6633   0.04614   0.04196  -0.0304  0.0071  1.0000  -12.2398   0.0000   0.2407
  17.600   1.6663   0.04689   0.04272  -0.0302  0.0071  1.0000  -12.3336   0.0000   0.2404
  17.700   1.6688   0.04769   0.04354  -0.0301  0.0070  1.0000  -12.4247   0.0000   0.2400
  17.800   1.6715   0.04849   0.04436  -0.0300  0.0070  1.0000  -12.5164   0.0000   0.2397
  17.900   1.6740   0.04930   0.04519  -0.0299  0.0070  1.0000  -12.6077   0.0000   0.2394
  18.000   1.6763   0.05014   0.04606  -0.0298  0.0070  1.0000  -12.6969   0.0000   0.2391
  18.100   1.6788   0.05098   0.04691  -0.0298  0.0070  1.0000  -12.7882   0.0000   0.2388
  18.200   1.6810   0.05185   0.04780  -0.0297  0.0070  1.0000  -12.8768   0.0000   0.2385
  18.300   1.6832   0.05273   0.04870  -0.0297  0.0070  1.0000  -12.9661   0.0000   0.2382
  18.400   1.6854   0.05361   0.04960  -0.0296  0.0069  1.0000  -13.0555   0.0000   0.2379
  18.500   1.6873   0.05453   0.05055  -0.0296  0.0069  1.0000  -13.1423   0.0000   0.2376
  18.600   1.6894   0.05544   0.05147  -0.0296  0.0069  1.0000  -13.2312   0.0000   0.2373
  18.700   1.6912   0.05639   0.05245  -0.0296  0.0069  1.0000  -13.3170   0.0000   0.2370
  18.800   1.6929   0.05735   0.05343  -0.0297  0.0069  1.0000  -13.4035   0.0000   0.2368
  18.900   1.6947   0.05832   0.05442  -0.0297  0.0068  1.0000  -13.4897   0.0000   0.2365
  19.000   1.6961   0.05934   0.05546  -0.0297  0.0068  1.0000  -13.5732   0.0000   0.2363
  19.100   1.6978   0.06034   0.05648  -0.0298  0.0068  1.0000  -13.6587   0.0000   0.2360
  19.200   1.6989   0.06140   0.05757  -0.0299  0.0068  1.0000  -13.7411   0.0000   0.2358
  19.300   1.7002   0.06246   0.05865  -0.0300  0.0068  1.0000  -13.8263   0.0000   0.2356
  19.400   1.7012   0.06356   0.05977  -0.0301  0.0067  1.0000  -13.9085   0.0000   0.2354
  19.500   1.7020   0.06468   0.06092  -0.0302  0.0067  1.0000  -13.9893   0.0000   0.2352
  19.600   1.7028   0.06582   0.06209  -0.0304  0.0067  1.0000  -14.0700   0.0000   0.2350
  19.700   1.7032   0.06703   0.06331  -0.0305  0.0067  1.0000  -14.1468   0.0000   0.2348
  19.800   1.7038   0.06821   0.06452  -0.0307  0.0067  1.0000  -14.2257   0.0000   0.2347
  19.900   1.7039   0.06947   0.06581  -0.0309  0.0067  1.0000  -14.2996   0.0000   0.2345
  20.000   1.7043   0.07070   0.06707  -0.0312  0.0066  1.0000  -14.3764   0.0000   0.2344
  20.100   1.7041   0.07202   0.06841  -0.0314  0.0066  1.0000  -14.4475   0.0000   0.2342
  20.200   1.7042   0.07330   0.06972  -0.0317  0.0066  1.0000  -14.5214   0.0000   0.2341
  20.300   1.7037   0.07468   0.07112  -0.0320  0.0066  1.0000  -14.5896   0.0000   0.2340
  20.400   1.7036   0.07601   0.07247  -0.0323  0.0066  1.0000  -14.6613   0.0000   0.2339
  20.500   1.7029   0.07743   0.07392  -0.0326  0.0066  1.0000  -14.7273   0.0000   0.2339
  20.600   1.7026   0.07881   0.07533  -0.0330  0.0065  1.0000  -14.7968   0.0000   0.2338
  20.700   1.7017   0.08029   0.07684  -0.0334  0.0065  1.0000  -14.8604   0.0000   0.2337
  20.800   1.7012   0.08172   0.07830  -0.0338  0.0065  1.0000  -14.9274   0.0000   0.2337
  20.900   1.7001   0.08326   0.07986  -0.0342  0.0065  1.0000  -14.9882   0.0000   0.2337
  21.000   1.6992   0.08475   0.08138  -0.0347  0.0065  1.0000  -15.0516   0.0000   0.2337
  21.100   1.6978   0.08634   0.08299  -0.0352  0.0064  1.0000  -15.1092   0.0000   0.2337
  21.200   1.6966   0.08791   0.08459  -0.0357  0.0064  1.0000  -15.1684   0.0000   0.2337
  21.300   1.6951   0.08953   0.08625  -0.0362  0.0064  1.0000  -15.2243   0.0000   0.2338
  21.400   1.6935   0.09120   0.08795  -0.0368  0.0064  1.0000  -15.2778   0.0000   0.2338
  21.500   1.6919   0.09286   0.08963  -0.0374  0.0064  1.0000  -15.3323   0.0000   0.2339
  21.600   1.6897   0.09464   0.09144  -0.0381  0.0064  1.0000  -15.3793   0.0000   0.2340
  21.700   1.6878   0.09637   0.09320  -0.0387  0.0064  1.0000  -15.4288   0.0000   0.2342
  21.800   1.6854   0.09819   0.09505  -0.0395  0.0063  1.0000  -15.4727   0.0000   0.2343
  21.900   1.6827   0.10007   0.09697  -0.0402  0.0063  1.0000  -15.5121   0.0000   0.2345
  22.000   1.6801   0.10194   0.09887  -0.0410  0.0063  1.0000  -15.5525   0.0000   0.2347
  22.100   1.6770   0.10391   0.10087  -0.0419  0.0063  1.0000  -15.5865   0.0000   0.2350
  22.200   1.6736   0.10595   0.10294  -0.0428  0.0063  1.0000  -15.6176   0.0000   0.2353
  22.300   1.6702   0.10798   0.10501  -0.0437  0.0063  1.0000  -15.6487   0.0000   0.2356
  22.400   1.6666   0.11006   0.10712  -0.0447  0.0062  1.0000  -15.6762   0.0000   0.2359
  22.500   1.6625   0.11225   0.10934  -0.0458  0.0062  1.0000  -15.6963   0.0000   0.2363
  22.600   1.6582   0.11449   0.11162  -0.0469  0.0062  1.0000  -15.7120   0.0000   0.2367
  22.700   1.6537   0.11674   0.11391  -0.0481  0.0062  1.0000  -15.7251   0.0000   0.2372
  22.800   1.6491   0.11905   0.11625  -0.0493  0.0062  1.0000  -15.7352   0.0000   0.2377
  22.900   1.6443   0.12140   0.11865  -0.0506  0.0062  1.0000  -15.7412   0.0000   0.2382
  23.000   1.6392   0.12382   0.12111  -0.0519  0.0062  1.0000  -15.7418   0.0000   0.2388
  23.100   1.6337   0.12631   0.12363  -0.0533  0.0062  1.0000  -15.7366   0.0000   0.2395
  23.200   1.6281   0.12885   0.12622  -0.0548  0.0061  1.0000  -15.7268   0.0000   0.2402
  23.300   1.6222   0.13144   0.12885  -0.0564  0.0061  1.0000  -15.7118   0.0000   0.2410
  23.400   1.6160   0.13408   0.13153  -0.0580  0.0061  1.0000  -15.6912   0.0000   0.2418
  23.500   1.6096   0.13678   0.13427  -0.0597  0.0061  1.0000  -15.6655   0.0000   0.2426
  23.600   1.6031   0.13954   0.13707  -0.0614  0.0061  1.0000  -15.6346   0.0000   0.2436
  23.700   1.5963   0.14234   0.13992  -0.0633  0.0061  1.0000  -15.5982   0.0000   0.2446
  23.800   1.5892   0.14521   0.14283  -0.0652  0.0061  1.0000  -15.5558   0.0000   0.2456
  23.900   1.5820   0.14814   0.14580  -0.0671  0.0061  1.0000  -15.5075   0.0000   0.2467
  24.000   1.5745   0.15112   0.14882  -0.0692  0.0061  1.0000  -15.4527   0.0000   0.2479
  24.100   1.5668   0.15415   0.15190  -0.0713  0.0061  1.0000  -15.3912   0.0000   0.2492
  24.200   1.5587   0.15725   0.15505  -0.0735  0.0060  1.0000  -15.3225   0.0000   0.2505
  24.300   1.5505   0.16040   0.15825  -0.0758  0.0060  1.0000  -15.2470   0.0000   0.2519
  24.400   1.5421   0.16361   0.16150  -0.0782  0.0060  1.0000  -15.1649   0.0000   0.2534
  24.500   1.5335   0.16688   0.16481  -0.0806  0.0060  1.0000  -15.0760   0.0000   0.2549
  24.600   1.5248   0.17020   0.16818  -0.0831  0.0060  1.0000  -14.9803   0.0000   0.2566
  24.700   1.5159   0.17357   0.17160  -0.0857  0.0060  1.0000  -14.8770   0.0000   0.2583
  24.800   1.5067   0.17701   0.17508  -0.0883  0.0060  1.0000  -14.7656   0.0000   0.2601
  24.900   1.4974   0.18049   0.17862  -0.0910  0.0060  1.0000  -14.6467   0.0000   0.2620
  25.000   1.4880   0.18404   0.18221  -0.0938  0.0060  1.0000  -14.5197   0.0000   0.2639


