xflr5 v6.47

 Calculated polar for: NACA 65(2)-415

 1 1 Reynolds number fixed          Mach number fixed         

 xtrf =   1.000 (top)        1.000 (bottom)
 Mach =   0.000     Re =     5.000 e 6     Ncrit =   9.000

  alpha     CL        CD       CDp       Cm    Top Xtr Bot Xtr   Cpmin    Chinge    XCp    
 ------- -------- --------- --------- -------- ------- ------- -------- --------- ---------
 -23.500  -0.7774   0.22659   0.22570   0.0284  1.0000  0.0048  -6.9400   0.0000   0.2478
 -23.400  -0.7751   0.22526   0.22437   0.0274  1.0000  0.0049  -6.9415   0.0000   0.2468
 -23.300  -0.7726   0.22399   0.22310   0.0264  1.0000  0.0049  -6.9333   0.0000   0.2458
 -23.200  -0.7703   0.22266   0.22177   0.0254  1.0000  0.0050  -6.9299   0.0000   0.2448
 -23.100  -0.7682   0.22123   0.22034   0.0243  1.0000  0.0050  -6.9380   0.0000   0.2437
 -23.000  -0.7667   0.21961   0.21872   0.0232  1.0000  0.0051  -6.9653   0.0000   0.2424
 -22.900  -0.7709   0.21601   0.21511   0.0210  1.0000  0.0053  -7.2193   0.0000   0.2395
 -22.800  -0.7724   0.21339   0.21248   0.0194  1.0000  0.0054  -7.3555   0.0000   0.2374
 -22.600  -1.2388   0.10747   0.10552  -0.0444  1.0000  0.0057  -17.6417   0.0000   0.1763
 -22.500  -1.2802   0.09896   0.09688  -0.0494  1.0000  0.0056  -18.2530   0.0000   0.1740
 -22.400  -1.3062   0.09321   0.09104  -0.0528  1.0000  0.0056  -18.6028   0.0000   0.1727
 -22.300  -1.3255   0.08865   0.08641  -0.0555  1.0000  0.0056  -18.8400   0.0000   0.1716
 -22.200  -1.3413   0.08470   0.08240  -0.0577  1.0000  0.0056  -19.0176   0.0000   0.1708
 -22.100  -1.3546   0.08124   0.07888  -0.0597  1.0000  0.0056  -19.1517   0.0000   0.1702
 -22.000  -1.3660   0.07809   0.07569  -0.0615  1.0000  0.0056  -19.2554   0.0000   0.1696
 -21.900  -1.3758   0.07524   0.07278  -0.0631  1.0000  0.0056  -19.3317   0.0000   0.1691
 -21.800  -1.3843   0.07262   0.07012  -0.0645  1.0000  0.0056  -19.3871   0.0000   0.1687
 -21.700  -1.3918   0.07020   0.06766  -0.0658  1.0000  0.0056  -19.4259   0.0000   0.1683
 -21.600  -1.3985   0.06792   0.06533  -0.0671  1.0000  0.0056  -19.4518   0.0000   0.1680
 -21.500  -1.4043   0.06579   0.06317  -0.0682  1.0000  0.0057  -19.4633   0.0000   0.1678
 -21.400  -1.4093   0.06381   0.06114  -0.0692  1.0000  0.0057  -19.4628   0.0000   0.1676
 -21.300  -1.4138   0.06193   0.05923  -0.0701  1.0000  0.0057  -19.4531   0.0000   0.1674
 -21.200  -1.4178   0.06015   0.05742  -0.0709  1.0000  0.0057  -19.4354   0.0000   0.1672
 -21.100  -1.4212   0.05846   0.05569  -0.0717  1.0000  0.0057  -19.4095   0.0000   0.1671
 -21.000  -1.4242   0.05684   0.05404  -0.0725  1.0000  0.0057  -19.3764   0.0000   0.1670
 -20.900  -1.4267   0.05531   0.05248  -0.0732  1.0000  0.0057  -19.3367   0.0000   0.1669
 -20.800  -1.4288   0.05386   0.05100  -0.0738  1.0000  0.0057  -19.2905   0.0000   0.1669
 -20.700  -1.4304   0.05248   0.04959  -0.0743  1.0000  0.0057  -19.2386   0.0000   0.1668
 -20.600  -1.4318   0.05115   0.04823  -0.0749  1.0000  0.0057  -19.1819   0.0000   0.1668
 -20.500  -1.4329   0.04986   0.04691  -0.0754  1.0000  0.0058  -19.1217   0.0000   0.1668
 -20.400  -1.4337   0.04863   0.04565  -0.0758  1.0000  0.0058  -19.0562   0.0000   0.1668
 -20.300  -1.4341   0.04747   0.04446  -0.0762  1.0000  0.0058  -18.9857   0.0000   0.1668
 -20.200  -1.4349   0.04627   0.04324  -0.0766  1.0000  0.0058  -18.9210   0.0000   0.1668
 -20.100  -1.4369   0.04496   0.04189  -0.0770  1.0000  0.0058  -18.8715   0.0000   0.1669
 -20.000  -1.4385   0.04371   0.04062  -0.0774  1.0000  0.0059  -18.8156   0.0000   0.1670
 -19.900  -1.4396   0.04253   0.03941  -0.0777  1.0000  0.0059  -18.7540   0.0000   0.1671
 -19.800  -1.4404   0.04141   0.03825  -0.0779  1.0000  0.0060  -18.6881   0.0000   0.1672
 -19.700  -1.4410   0.04032   0.03714  -0.0782  1.0000  0.0060  -18.6189   0.0000   0.1673
 -19.600  -1.4411   0.03930   0.03609  -0.0784  1.0000  0.0061  -18.5439   0.0000   0.1675
 -19.500  -1.4409   0.03832   0.03509  -0.0785  1.0000  0.0061  -18.4641   0.0000   0.1676
 -19.400  -1.4405   0.03738   0.03413  -0.0787  1.0000  0.0062  -18.3821   0.0000   0.1678
 -19.300  -1.4399   0.03649   0.03321  -0.0788  1.0000  0.0062  -18.2963   0.0000   0.1679
 -19.200  -1.4389   0.03564   0.03234  -0.0788  1.0000  0.0062  -18.2066   0.0000   0.1681
 -19.100  -1.4377   0.03482   0.03150  -0.0789  1.0000  0.0063  -18.1146   0.0000   0.1683
 -19.000  -1.4362   0.03404   0.03069  -0.0789  1.0000  0.0063  -18.0186   0.0000   0.1684
 -18.900  -1.4345   0.03328   0.02992  -0.0789  1.0000  0.0064  -17.9200   0.0000   0.1686
 -18.800  -1.4326   0.03255   0.02916  -0.0789  1.0000  0.0064  -17.8198   0.0000   0.1688
 -18.700  -1.4303   0.03185   0.02845  -0.0789  1.0000  0.0064  -17.7153   0.0000   0.1690
 -18.600  -1.4280   0.03117   0.02775  -0.0788  1.0000  0.0065  -17.6096   0.0000   0.1691
 -18.500  -1.4253   0.03052   0.02708  -0.0788  1.0000  0.0065  -17.5008   0.0000   0.1693
 -18.400  -1.4225   0.02990   0.02643  -0.0787  1.0000  0.0065  -17.3902   0.0000   0.1694
 -18.300  -1.4195   0.02929   0.02581  -0.0787  1.0000  0.0066  -17.2780   0.0000   0.1696
 -18.200  -1.4162   0.02870   0.02520  -0.0786  1.0000  0.0066  -17.1630   0.0000   0.1698
 -18.100  -1.4128   0.02813   0.02461  -0.0785  1.0000  0.0067  -17.0473   0.0000   0.1699
 -18.000  -1.4092   0.02758   0.02405  -0.0784  1.0000  0.0067  -16.9292   0.0000   0.1701
 -17.900  -1.4056   0.02705   0.02350  -0.0783  1.0000  0.0067  -16.8104   0.0000   0.1702
 -17.800  -1.4016   0.02654   0.02297  -0.0781  1.0000  0.0068  -16.6888   0.0000   0.1704
 -17.700  -1.3975   0.02604   0.02245  -0.0780  1.0000  0.0068  -16.5665   0.0000   0.1705
 -17.600  -1.3933   0.02556   0.02196  -0.0779  1.0000  0.0068  -16.4427   0.0000   0.1707
 -17.500  -1.3890   0.02510   0.02147  -0.0777  1.0000  0.0069  -16.3180   0.0000   0.1708
 -17.400  -1.3845   0.02464   0.02101  -0.0776  1.0000  0.0069  -16.1920   0.0000   0.1710
 -17.300  -1.3798   0.02421   0.02055  -0.0774  1.0000  0.0069  -16.0648   0.0000   0.1711
 -17.200  -1.3751   0.02378   0.02011  -0.0772  1.0000  0.0069  -15.9407   0.0000   0.1713
 -17.100  -1.3702   0.02338   0.01969  -0.0770  1.0000  0.0070  -15.8157   0.0000   0.1714
 -17.000  -1.3653   0.02298   0.01928  -0.0768  1.0000  0.0070  -15.6901   0.0000   0.1715
 -16.900  -1.3607   0.02255   0.01884  -0.0766  1.0000  0.0070  -15.5694   0.0000   0.1717
 -16.800  -1.3567   0.02209   0.01835  -0.0763  1.0000  0.0071  -15.4565   0.0000   0.1720
 -16.700  -1.3525   0.02165   0.01790  -0.0761  1.0000  0.0072  -15.3412   0.0000   0.1722
 -16.600  -1.3481   0.02122   0.01746  -0.0758  1.0000  0.0073  -15.2235   0.0000   0.1724
 -16.500  -1.3435   0.02082   0.01705  -0.0755  1.0000  0.0074  -15.1041   0.0000   0.1727
 -16.400  -1.3387   0.02044   0.01665  -0.0752  1.0000  0.0074  -14.9825   0.0000   0.1729
 -16.300  -1.3338   0.02008   0.01628  -0.0749  1.0000  0.0075  -14.8598   0.0000   0.1731
 -16.200  -1.3287   0.01973   0.01592  -0.0745  1.0000  0.0076  -14.7359   0.0000   0.1733
 -16.100  -1.3236   0.01940   0.01557  -0.0742  1.0000  0.0077  -14.6115   0.0000   0.1736
 -16.000  -1.3184   0.01907   0.01524  -0.0738  1.0000  0.0077  -14.4865   0.0000   0.1738
 -15.900  -1.3130   0.01877   0.01492  -0.0735  1.0000  0.0078  -14.3608   0.0000   0.1740
 -15.700  -1.3075   0.01819   0.01432  -0.0716  0.9916  0.0079  -14.1507   0.0000   0.1756
 -15.600  -1.2935   0.01787   0.01399  -0.0729  0.9867  0.0080  -13.9570   0.0000   0.1742
 -15.500  -1.2784   0.01757   0.01368  -0.0744  0.9836  0.0081  -13.7566   0.0000   0.1725
 -15.400  -1.2624   0.01727   0.01337  -0.0761  0.9812  0.0081  -13.5495   0.0000   0.1706
 -15.300  -1.2456   0.01699   0.01307  -0.0778  0.9795  0.0082  -13.3379   0.0000   0.1685
 -15.200  -1.2287   0.01671   0.01279  -0.0796  0.9781  0.0083  -13.1263   0.0000   0.1663
 -15.100  -1.2112   0.01643   0.01250  -0.0816  0.9760  0.0083  -12.9116   0.0000   0.1639
 -15.000  -1.1939   0.01608   0.01213  -0.0835  0.9731  0.0085  -12.7045   0.0000   0.1614
 -14.900  -1.1767   0.01576   0.01180  -0.0855  0.9685  0.0087  -12.4973   0.0000   0.1589
 -14.800  -1.1612   0.01550   0.01151  -0.0870  0.9597  0.0089  -12.3028   0.0000   0.1568
 -14.700  -1.1529   0.01532   0.01127  -0.0869  0.9439  0.0090  -12.1619   0.0000   0.1564
 -14.600  -1.1485   0.01515   0.01106  -0.0861  0.9310  0.0091  -12.0494   0.0000   0.1570
 -14.500  -1.1438   0.01499   0.01085  -0.0853  0.9214  0.0092  -11.9360   0.0000   0.1576
 -14.400  -1.1389   0.01482   0.01065  -0.0845  0.9138  0.0093  -11.8206   0.0000   0.1581
 -14.300  -1.1338   0.01465   0.01046  -0.0838  0.9071  0.0093  -11.7052   0.0000   0.1586
 -14.200  -1.1287   0.01449   0.01027  -0.0830  0.9007  0.0094  -11.5892   0.0000   0.1591
 -14.100  -1.1234   0.01433   0.01009  -0.0823  0.8953  0.0095  -11.4726   0.0000   0.1596
 -13.900  -1.1135   0.01403   0.00974  -0.0807  0.8847  0.0096  -11.2456   0.0000   0.1607
 -13.700  -1.1044   0.01377   0.00943  -0.0788  0.8750  0.0097  -11.0253   0.0000   0.1622
 -13.600  -1.0984   0.01367   0.00930  -0.0781  0.8705  0.0098  -10.9057   0.0000   0.1626
 -13.500  -1.0910   0.01354   0.00915  -0.0776  0.8668  0.0098  -10.7769   0.0000   0.1627
 -13.400  -1.0840   0.01336   0.00896  -0.0772  0.8629  0.0100  -10.6532   0.0000   0.1628
 -13.200  -1.0688   0.01307   0.00864  -0.0764  0.8558  0.0103  -10.3967   0.0000   0.1628
 -13.100  -1.0607   0.01294   0.00850  -0.0760  0.8521  0.0104  -10.2652   0.0000   0.1627
 -13.000  -1.0525   0.01282   0.00836  -0.0757  0.8487  0.0105  -10.1338   0.0000   0.1626
 -12.900  -1.0439   0.01270   0.00824  -0.0754  0.8456  0.0106  -10.0001   0.0000   0.1624
 -12.800  -1.0353   0.01259   0.00811  -0.0752  0.8422  0.0107  -9.8667   0.0000   0.1622
 -12.600  -1.0176   0.01237   0.00787  -0.0747  0.8362  0.0109  -9.6060   0.0000   0.1617
 -12.500  -1.0086   0.01227   0.00775  -0.0745  0.8331  0.0110  -9.4766   0.0000   0.1613
 -12.400  -0.9995   0.01217   0.00764  -0.0743  0.8300  0.0111  -9.3480   0.0000   0.1610
 -12.300  -0.9903   0.01207   0.00753  -0.0741  0.8274  0.0112  -9.2190   0.0000   0.1606
 -12.200  -0.9809   0.01197   0.00742  -0.0740  0.8246  0.0112  -9.0897   0.0000   0.1602
 -12.100  -0.9715   0.01188   0.00731  -0.0738  0.8217  0.0113  -8.9610   0.0000   0.1597
 -11.900  -0.9524   0.01170   0.00711  -0.0735  0.8164  0.0114  -8.7038   0.0000   0.1588
 -11.800  -0.9432   0.01158   0.00697  -0.0734  0.8136  0.0115  -8.5796   0.0000   0.1583
 -11.700  -0.9342   0.01144   0.00682  -0.0731  0.8107  0.0117  -8.4589   0.0000   0.1579
 -11.600  -0.9250   0.01132   0.00669  -0.0730  0.8081  0.0119  -8.3357   0.0000   0.1574
 -11.500  -0.9153   0.01121   0.00658  -0.0729  0.8058  0.0120  -8.2101   0.0000   0.1568
 -11.400  -0.9055   0.01112   0.00648  -0.0728  0.8032  0.0121  -8.0845   0.0000   0.1562
 -11.300  -0.8957   0.01103   0.00638  -0.0727  0.8005  0.0123  -7.9595   0.0000   0.1555
 -11.200  -0.8859   0.01095   0.00629  -0.0726  0.7980  0.0124  -7.8347   0.0000   0.1548
 -11.100  -0.8758   0.01086   0.00620  -0.0725  0.7957  0.0125  -7.7097   0.0000   0.1541
 -11.000  -0.8658   0.01077   0.00611  -0.0724  0.7931  0.0126  -7.5857   0.0000   0.1533
 -10.900  -0.8558   0.01069   0.00601  -0.0724  0.7905  0.0127  -7.4627   0.0000   0.1525
 -10.800  -0.8457   0.01061   0.00592  -0.0723  0.7881  0.0128  -7.3404   0.0000   0.1517
 -10.700  -0.8355   0.01053   0.00584  -0.0723  0.7858  0.0129  -7.2179   0.0000   0.1508
 -10.600  -0.8252   0.01045   0.00575  -0.0722  0.7834  0.0129  -7.0963   0.0000   0.1498
 -10.500  -0.8150   0.01038   0.00566  -0.0722  0.7808  0.0130  -6.9755   0.0000   0.1489
 -10.400  -0.8048   0.01031   0.00558  -0.0721  0.7783  0.0131  -6.8555   0.0000   0.1479
 -10.300  -0.7943   0.01023   0.00550  -0.0721  0.7762  0.0131  -6.7384   0.0000   0.1468
 -10.200  -0.7839   0.01016   0.00542  -0.0721  0.7737  0.0132  -6.6233   0.0000   0.1457
 -10.100  -0.7734   0.01010   0.00535  -0.0721  0.7711  0.0132  -6.5087   0.0000   0.1446
  -9.900  -0.7537   0.00985   0.00507  -0.0719  0.7665  0.0136  -6.2939   0.0000   0.1426
  -9.800  -0.7434   0.00975   0.00497  -0.0719  0.7642  0.0138  -6.1839   0.0000   0.1414
  -9.700  -0.7330   0.00967   0.00488  -0.0719  0.7617  0.0139  -6.0736   0.0000   0.1401
  -9.500  -0.7121   0.00952   0.00472  -0.0719  0.7571  0.0141  -5.8541   0.0000   0.1374
  -9.400  -0.7014   0.00945   0.00464  -0.0719  0.7549  0.0143  -5.7448   0.0000   0.1359
  -9.300  -0.6908   0.00938   0.00456  -0.0719  0.7525  0.0144  -5.6365   0.0000   0.1344
  -9.200  -0.6803   0.00931   0.00449  -0.0719  0.7500  0.0145  -5.5292   0.0000   0.1328
  -9.100  -0.6696   0.00924   0.00441  -0.0719  0.7479  0.0146  -5.4224   0.0000   0.1312
  -9.000  -0.6588   0.00917   0.00434  -0.0720  0.7458  0.0147  -5.3159   0.0000   0.1294
  -8.900  -0.6481   0.00911   0.00427  -0.0720  0.7436  0.0148  -5.2118   0.0000   0.1276
  -8.800  -0.6373   0.00905   0.00420  -0.0720  0.7413  0.0149  -5.1110   0.0000   0.1258
  -8.700  -0.6266   0.00899   0.00414  -0.0720  0.7390  0.0150  -5.0110   0.0000   0.1238
  -8.600  -0.6157   0.00893   0.00407  -0.0721  0.7372  0.0150  -4.9112   0.0000   0.1218
  -8.500  -0.6047   0.00887   0.00401  -0.0722  0.7352  0.0151  -4.8122   0.0000   0.1196
  -8.400  -0.5939   0.00882   0.00394  -0.0722  0.7330  0.0151  -4.7141   0.0000   0.1174
  -8.300  -0.5830   0.00876   0.00388  -0.0722  0.7308  0.0152  -4.6169   0.0000   0.1151
  -8.200  -0.5726   0.00865   0.00375  -0.0722  0.7287  0.0154  -4.5254   0.0000   0.1129
  -8.100  -0.5619   0.00856   0.00365  -0.0723  0.7270  0.0156  -4.4325   0.0000   0.1105
  -8.000  -0.5511   0.00847   0.00356  -0.0723  0.7250  0.0158  -4.3390   0.0000   0.1079
  -7.900  -0.5402   0.00841   0.00349  -0.0723  0.7230  0.0160  -4.2477   0.0000   0.1052
  -7.800  -0.5293   0.00834   0.00342  -0.0724  0.7209  0.0161  -4.1585   0.0000   0.1024
  -7.700  -0.5184   0.00829   0.00336  -0.0724  0.7189  0.0162  -4.0699   0.0000   0.0995
  -7.600  -0.5073   0.00822   0.00329  -0.0725  0.7173  0.0164  -3.9815   0.0000   0.0963
  -7.500  -0.4963   0.00816   0.00323  -0.0726  0.7155  0.0165  -3.8939   0.0000   0.0929
  -7.400  -0.4852   0.00811   0.00317  -0.0727  0.7136  0.0166  -3.8069   0.0000   0.0895
  -7.300  -0.4741   0.00805   0.00311  -0.0727  0.7117  0.0168  -3.7207   0.0000   0.0858
  -7.100  -0.4519   0.00795   0.00300  -0.0729  0.7081  0.0170  -3.5551   0.0000   0.0779
  -7.000  -0.4407   0.00790   0.00294  -0.0730  0.7065  0.0171  -3.4744   0.0000   0.0736
  -6.900  -0.4296   0.00784   0.00288  -0.0731  0.7048  0.0172  -3.3945   0.0000   0.0691
  -6.800  -0.4184   0.00780   0.00283  -0.0732  0.7029  0.0173  -3.3151   0.0000   0.0643
  -6.700  -0.4072   0.00775   0.00278  -0.0733  0.7011  0.0173  -3.2362   0.0000   0.0592
  -6.600  -0.3962   0.00769   0.00271  -0.0733  0.6992  0.0175  -3.1610   0.0000   0.0540
  -6.500  -0.3851   0.00761   0.00263  -0.0734  0.6978  0.0178  -3.0892   0.0000   0.0484
  -6.400  -0.3739   0.00755   0.00256  -0.0735  0.6962  0.0181  -3.0170   0.0000   0.0424
  -6.300  -0.3626   0.00749   0.00250  -0.0736  0.6945  0.0183  -2.9449   0.0000   0.0360
  -6.200  -0.3514   0.00744   0.00245  -0.0737  0.6928  0.0185  -2.8731   0.0000   0.0291
  -6.100  -0.3402   0.00739   0.00240  -0.0738  0.6910  0.0186  -2.8018   0.0000   0.0219
  -6.000  -0.3290   0.00735   0.00235  -0.0739  0.6892  0.0188  -2.7339   0.0000   0.0141
  -5.900  -0.3176   0.00730   0.00230  -0.0740  0.6879  0.0190  -2.6665   0.0000   0.0055
  -5.800  -0.3062   0.00726   0.00226  -0.0741  0.6864  0.0192  -2.5998   0.0000  -0.0037
  -5.700  -0.2948   0.00721   0.00221  -0.0743  0.6848  0.0194  -2.5339   0.0000  -0.0135
  -5.600  -0.2835   0.00717   0.00217  -0.0744  0.6831  0.0195  -2.4687   0.0000  -0.0241
  -5.500  -0.2722   0.00714   0.00212  -0.0745  0.6813  0.0196  -2.4039   0.0000  -0.0356
  -5.300  -0.2495   0.00704   0.00202  -0.0747  0.6783  0.0202  -2.2796   0.0000  -0.0618
  -5.200  -0.2381   0.00698   0.00197  -0.0748  0.6769  0.0207  -2.2206   0.0000  -0.0769
  -5.100  -0.2267   0.00694   0.00193  -0.0750  0.6753  0.0210  -2.1613   0.0000  -0.0936
  -5.000  -0.2153   0.00690   0.00189  -0.0751  0.6737  0.0214  -2.1024   0.0000  -0.1120
  -4.900  -0.2039   0.00686   0.00185  -0.0752  0.6720  0.0217  -2.0441   0.0000  -0.1324
  -4.700  -0.1810   0.00679   0.00178  -0.0755  0.6690  0.0223  -1.9286   0.0000  -0.1813
  -4.600  -0.1695   0.00675   0.00173  -0.0756  0.6677  0.0228  -1.8722   0.0000  -0.2109
  -4.500  -0.1581   0.00670   0.00169  -0.0757  0.6662  0.0236  -1.8162   0.0000  -0.2447
  -4.400  -0.1466   0.00666   0.00166  -0.0759  0.6647  0.0243  -1.7602   0.0000  -0.2838
  -4.300  -0.1351   0.00663   0.00162  -0.0760  0.6631  0.0249  -1.7047   0.0000  -0.3296
  -4.200  -0.1236   0.00660   0.00159  -0.0761  0.6615  0.0253  -1.6497   0.0000  -0.3838
  -4.100  -0.1122   0.00656   0.00155  -0.0762  0.6598  0.0265  -1.5960   0.0000  -0.4487
  -4.000  -0.1007   0.00652   0.00152  -0.0764  0.6587  0.0275  -1.5419   0.0000  -0.5297
  -3.900  -0.0891   0.00648   0.00149  -0.0765  0.6574  0.0283  -1.4882   0.0000  -0.6318
  -3.800  -0.0776   0.00645   0.00145  -0.0767  0.6560  0.0297  -1.4383   0.0000  -0.7639
  -3.700  -0.0661   0.00641   0.00142  -0.0768  0.6545  0.0312  -1.3887   0.0000  -0.9415
  -3.600  -0.0546   0.00638   0.00139  -0.0770  0.6530  0.0325  -1.3396   0.0000  -1.1941
  -3.500  -0.0431   0.00634   0.00136  -0.0771  0.6515  0.0350  -1.2912   0.0000  -1.5791
  -3.400  -0.0317   0.00630   0.00133  -0.0772  0.6499  0.0378  -1.2432   0.0000  -2.2443
  -3.300  -0.0201   0.00625   0.00130  -0.0774  0.6488  0.0419  -1.1954   0.0000  -3.6836
  -3.200  -0.0086   0.00618   0.00126  -0.0775  0.6476  0.0485  -1.1484   0.0000  -8.9467
  -3.100   0.0028   0.00611   0.00122  -0.0777  0.6462  0.0577  -1.1020   0.0000  28.0532
  -3.000   0.0143   0.00604   0.00119  -0.0778  0.6448  0.0693  -1.0562   0.0000   5.8148
  -2.800   0.0370   0.00588   0.00111  -0.0781  0.6419  0.0970  -0.9660   0.0000   2.3978
  -2.600   0.0597   0.00568   0.00103  -0.0785  0.6394  0.1372  -0.8780   0.0000   1.5838
  -2.500   0.0712   0.00558   0.00100  -0.0787  0.6382  0.1591  -0.8345   0.0000   1.3714
  -2.400   0.0826   0.00547   0.00096  -0.0788  0.6370  0.1824  -0.7914   0.0000   1.2177
  -2.300   0.0940   0.00535   0.00092  -0.0790  0.6356  0.2095  -0.7490   0.0000   1.1020
  -2.200   0.1053   0.00523   0.00088  -0.0792  0.6343  0.2371  -0.7070   0.0000   1.0112
  -2.100   0.1167   0.00512   0.00084  -0.0794  0.6329  0.2652  -0.6673   0.0000   0.9382
  -2.000   0.1281   0.00500   0.00081  -0.0796  0.6315  0.2946  -0.6286   0.0000   0.8782
  -1.900   0.1395   0.00488   0.00077  -0.0798  0.6302  0.3257  -0.5903   0.0000   0.8279
  -1.800   0.1509   0.00473   0.00073  -0.0800  0.6292  0.3611  -0.5928   0.0000   0.7851
  -1.700   0.1624   0.00457   0.00068  -0.0803  0.6281  0.4009  -0.5983   0.0000   0.7486
  -1.600   0.1738   0.00442   0.00064  -0.0805  0.6269  0.4367  -0.6038   0.0000   0.7167
  -1.500   0.1854   0.00433   0.00062  -0.0807  0.6256  0.4626  -0.6094   0.0000   0.6884
  -1.400   0.1969   0.00424   0.00060  -0.0809  0.6243  0.4860  -0.6150   0.0000   0.6634
  -1.300   0.2085   0.00417   0.00059  -0.0811  0.6230  0.5077  -0.6208   0.0000   0.6411
  -1.200   0.2201   0.00411   0.00058  -0.0813  0.6216  0.5281  -0.6265   0.0000   0.6210
  -1.100   0.2318   0.00407   0.00058  -0.0815  0.6204  0.5427  -0.6323   0.0000   0.6029
  -1.000   0.2436   0.00405   0.00058  -0.0817  0.6195  0.5520  -0.6382   0.0000   0.5863
  -0.900   0.2554   0.00403   0.00058  -0.0819  0.6184  0.5595  -0.6440   0.0000   0.5712
  -0.800   0.2672   0.00401   0.00058  -0.0820  0.6172  0.5662  -0.6498   0.0000   0.5575
  -0.700   0.2790   0.00401   0.00058  -0.0822  0.6160  0.5708  -0.6557   0.0000   0.5449
  -0.600   0.2907   0.00400   0.00059  -0.0824  0.6147  0.5762  -0.6615   0.0000   0.5334
  -0.500   0.3025   0.00400   0.00059  -0.0826  0.6134  0.5808  -0.6673   0.0000   0.5227
  -0.400   0.3142   0.00400   0.00059  -0.0827  0.6120  0.5850  -0.6732   0.0000   0.5129
  -0.300   0.3260   0.00400   0.00060  -0.0829  0.6106  0.5879  -0.6791   0.0000   0.5037
  -0.200   0.3378   0.00400   0.00060  -0.0831  0.6093  0.5910  -0.6851   0.0000   0.4952
  -0.100   0.3496   0.00399   0.00060  -0.0833  0.6078  0.5940  -0.6911   0.0000   0.4872
   0.000   0.3614   0.00400   0.00061  -0.0834  0.6059  0.5967  -0.6971   0.0000   0.4798
   0.200   0.3847   0.00402   0.00062  -0.0838  0.6015  0.6021  -0.7089   0.0000   0.4663
   0.300   0.3965   0.00402   0.00063  -0.0839  0.5998  0.6048  -0.7150   0.0000   0.4601
   0.400   0.4083   0.00403   0.00063  -0.0841  0.5978  0.6069  -0.7210   0.0000   0.4543
   0.500   0.4200   0.00404   0.00064  -0.0843  0.5956  0.6085  -0.7270   0.0000   0.4488
   0.600   0.4316   0.00405   0.00065  -0.0844  0.5934  0.6105  -0.7330   0.0000   0.4436
   0.700   0.4433   0.00406   0.00066  -0.0846  0.5913  0.6120  -0.7391   0.0000   0.4387
   0.800   0.4551   0.00406   0.00066  -0.0848  0.5895  0.6134  -0.7452   0.0000   0.4340
   0.900   0.4668   0.00407   0.00067  -0.0849  0.5872  0.6147  -0.7514   0.0000   0.4295
   1.000   0.4785   0.00409   0.00068  -0.0851  0.5846  0.6160  -0.7574   0.0000   0.4253
   1.100   0.4900   0.00411   0.00069  -0.0852  0.5818  0.6171  -0.7634   0.0000   0.4213
   1.200   0.5018   0.00412   0.00070  -0.0854  0.5796  0.6181  -0.7696   0.0000   0.4174
   1.300   0.5135   0.00413   0.00071  -0.0855  0.5768  0.6194  -0.7758   0.0000   0.4138
   1.400   0.5251   0.00415   0.00072  -0.0857  0.5739  0.6208  -0.7819   0.0000   0.4103
   1.500   0.5367   0.00417   0.00073  -0.0858  0.5715  0.6222  -0.7881   0.0000   0.4069
   1.600   0.5484   0.00417   0.00074  -0.0860  0.5694  0.6235  -0.7944   0.0000   0.4037
   1.700   0.5601   0.00419   0.00075  -0.0862  0.5667  0.6249  -0.8006   0.0000   0.4006
   1.900   0.5831   0.00424   0.00078  -0.0864  0.5587  0.6273  -0.8129   0.0000   0.3948
   2.000   0.5944   0.00428   0.00080  -0.0865  0.5533  0.6284  -0.8190   0.0000   0.3920
   2.100   0.6059   0.00431   0.00082  -0.0866  0.5478  0.6298  -0.8253   0.0000   0.3893
   2.200   0.6170   0.00435   0.00084  -0.0867  0.5400  0.6313  -0.8314   0.0000   0.3868
   2.300   0.6280   0.00441   0.00087  -0.0867  0.5308  0.6327  -0.8374   0.0000   0.3843
   2.400   0.6391   0.00446   0.00089  -0.0868  0.5224  0.6341  -0.8435   0.0000   0.3819
   2.500   0.6501   0.00452   0.00092  -0.0868  0.5146  0.6355  -0.8496   0.0000   0.3795
   2.600   0.6611   0.00458   0.00095  -0.0869  0.5055  0.6369  -0.8556   0.0000   0.3773
   2.700   0.6718   0.00467   0.00099  -0.0869  0.4935  0.6381  -0.8958   0.0000   0.3751
   2.900   0.6916   0.00494   0.00112  -0.0866  0.4541  0.6410  -0.9769   0.0000   0.3707
   3.000   0.6999   0.00520   0.00123  -0.0861  0.4193  0.6425  -1.0168   0.0000   0.3686
   3.100   0.7080   0.00547   0.00136  -0.0857  0.3835  0.6440  -1.0612   0.0000   0.3664
   3.200   0.7167   0.00569   0.00147  -0.0854  0.3545  0.6455  -1.1073   0.0000   0.3644
   3.300   0.7259   0.00589   0.00156  -0.0851  0.3306  0.6469  -1.1550   0.0000   0.3624
   3.400   0.7352   0.00607   0.00165  -0.0849  0.3082  0.6482  -1.2037   0.0000   0.3605
   3.600   0.7535   0.00645   0.00185  -0.0843  0.2620  0.6513  -1.3016   0.0000   0.3568
   3.700   0.7624   0.00665   0.00196  -0.0840  0.2376  0.6530  -1.3506   0.0000   0.3550
   3.800   0.7714   0.00685   0.00206  -0.0838  0.2145  0.6546  -1.4003   0.0000   0.3533
   3.900   0.7804   0.00704   0.00216  -0.0835  0.1927  0.6561  -1.4506   0.0000   0.3515
   4.000   0.7896   0.00722   0.00226  -0.0832  0.1732  0.6576  -1.5018   0.0000   0.3499
   4.100   0.7989   0.00739   0.00236  -0.0830  0.1557  0.6589  -1.5540   0.0000   0.3482
   4.200   0.8084   0.00754   0.00245  -0.0828  0.1402  0.6606  -1.6091   0.0000   0.3467
   4.300   0.8177   0.00770   0.00255  -0.0825  0.1244  0.6624  -1.6652   0.0000   0.3451
   4.400   0.8270   0.00786   0.00265  -0.0823  0.1096  0.6641  -1.7219   0.0000   0.3436
   4.600   0.8460   0.00815   0.00283  -0.0819  0.0847  0.6673  -1.8378   0.0000   0.3406
   4.700   0.8557   0.00828   0.00292  -0.0817  0.0750  0.6688  -1.8973   0.0000   0.3392
   4.800   0.8655   0.00840   0.00300  -0.0815  0.0665  0.6704  -1.9577   0.0000   0.3379
   5.000   0.8846   0.00866   0.00319  -0.0812  0.0495  0.6740  -2.0789   0.0000   0.3352
   5.100   0.8943   0.00878   0.00328  -0.0810  0.0424  0.6758  -2.1406   0.0000   0.3339
   5.200   0.9041   0.00890   0.00337  -0.0808  0.0369  0.6774  -2.2033   0.0000   0.3326
   5.300   0.9140   0.00901   0.00345  -0.0807  0.0329  0.6789  -2.2672   0.0000   0.3314
   5.400   0.9240   0.00910   0.00353  -0.0805  0.0299  0.6806  -2.3319   0.0000   0.3302
   5.500   0.9343   0.00917   0.00360  -0.0805  0.0284  0.6825  -2.3983   0.0000   0.3290
   5.600   0.9444   0.00926   0.00368  -0.0804  0.0265  0.6844  -2.4646   0.0000   0.3279
   5.700   0.9547   0.00933   0.00375  -0.0803  0.0256  0.6862  -2.5325   0.0000   0.3268
   5.800   0.9649   0.00941   0.00382  -0.0802  0.0245  0.6879  -2.6004   0.0000   0.3257
   5.900   0.9750   0.00949   0.00390  -0.0801  0.0233  0.6893  -2.6685   0.0000   0.3246
   6.000   0.9853   0.00956   0.00396  -0.0800  0.0227  0.6912  -2.7382   0.0000   0.3236
   6.100   0.9955   0.00963   0.00404  -0.0800  0.0219  0.6931  -2.8080   0.0000   0.3225
   6.200   1.0055   0.00972   0.00412  -0.0798  0.0210  0.6951  -2.8777   0.0000   0.3215
   6.300   1.0156   0.00979   0.00419  -0.0797  0.0202  0.6969  -2.9483   0.0000   0.3205
   6.400   1.0257   0.00987   0.00426  -0.0796  0.0197  0.6986  -3.0198   0.0000   0.3195
   6.600   1.0455   0.01004   0.00443  -0.0794  0.0181  0.7023  -3.1625   0.0000   0.3176
   6.700   1.0555   0.01011   0.00450  -0.0793  0.0176  0.7043  -3.2352   0.0000   0.3166
   6.800   1.0654   0.01019   0.00458  -0.0791  0.0171  0.7063  -3.3081   0.0000   0.3157
   6.900   1.0751   0.01028   0.00466  -0.0790  0.0164  0.7081  -3.3811   0.0000   0.3147
   7.000   1.0847   0.01038   0.00476  -0.0788  0.0157  0.7098  -3.4535   0.0000   0.3138
   7.100   1.0945   0.01045   0.00484  -0.0786  0.0154  0.7118  -3.5277   0.0000   0.3129
   7.200   1.1043   0.01053   0.00492  -0.0785  0.0150  0.7139  -3.6022   0.0000   0.3120
   7.300   1.1138   0.01062   0.00501  -0.0783  0.0145  0.7160  -3.6784   0.0000   0.3111
   7.400   1.1232   0.01072   0.00510  -0.0781  0.0140  0.7180  -3.7564   0.0000   0.3101
   7.500   1.1325   0.01082   0.00520  -0.0778  0.0135  0.7199  -3.8342   0.0000   0.3092
   7.600   1.1421   0.01090   0.00529  -0.0777  0.0133  0.7219  -3.9143   0.0000   0.3084
   7.700   1.1516   0.01099   0.00538  -0.0774  0.0131  0.7242  -3.9944   0.0000   0.3075
   7.800   1.1609   0.01108   0.00548  -0.0772  0.0128  0.7264  -4.0746   0.0000   0.3066
   7.900   1.1700   0.01118   0.00557  -0.0770  0.0125  0.7285  -4.1547   0.0000   0.3058
   8.000   1.1790   0.01129   0.00568  -0.0767  0.0122  0.7304  -4.2345   0.0000   0.3049
   8.100   1.1878   0.01140   0.00579  -0.0763  0.0118  0.7327  -4.3132   0.0000   0.3040
   8.200   1.1967   0.01149   0.00590  -0.0761  0.0116  0.7350  -4.3938   0.0000   0.3031
   8.300   1.2058   0.01158   0.00599  -0.0758  0.0115  0.7374  -4.4761   0.0000   0.3023
   8.400   1.2147   0.01168   0.00609  -0.0755  0.0114  0.7396  -4.5584   0.0000   0.3015
   8.500   1.2235   0.01178   0.00620  -0.0752  0.0112  0.7418  -4.6406   0.0000   0.3006
   8.600   1.2319   0.01188   0.00630  -0.0748  0.0111  0.7444  -4.7217   0.0000   0.2997
   8.700   1.2395   0.01197   0.00641  -0.0742  0.0109  0.7470  -4.8003   0.0000   0.2988
   8.800   1.2467   0.01207   0.00651  -0.0736  0.0108  0.7495  -4.8773   0.0000   0.2978
   9.000   1.2607   0.01230   0.00675  -0.0722  0.0104  0.7546  -5.0303   0.0000   0.2958
   9.100   1.2674   0.01243   0.00689  -0.0715  0.0102  0.7575  -5.1053   0.0000   0.2948
   9.200   1.2739   0.01257   0.00704  -0.0708  0.0100  0.7601  -5.1785   0.0000   0.2938
   9.300   1.2812   0.01269   0.00716  -0.0702  0.0100  0.7626  -5.2582   0.0000   0.2928
   9.400   1.2885   0.01280   0.00729  -0.0696  0.0099  0.7655  -5.3386   0.0000   0.2919
   9.500   1.2957   0.01292   0.00742  -0.0690  0.0099  0.7685  -5.4190   0.0000   0.2910
   9.600   1.3029   0.01304   0.00755  -0.0685  0.0098  0.7713  -5.4996   0.0000   0.2902
   9.700   1.3100   0.01317   0.00769  -0.0679  0.0098  0.7742  -5.5802   0.0000   0.2893
   9.800   1.3171   0.01330   0.00783  -0.0673  0.0097  0.7774  -5.6612   0.0000   0.2884
   9.900   1.3240   0.01344   0.00797  -0.0667  0.0096  0.7805  -5.7421   0.0000   0.2876
  10.000   1.3310   0.01358   0.00813  -0.0661  0.0096  0.7834  -5.8234   0.0000   0.2867
  10.100   1.3379   0.01372   0.00828  -0.0655  0.0095  0.7867  -5.9049   0.0000   0.2859
  10.200   1.3447   0.01387   0.00844  -0.0649  0.0094  0.7900  -5.9864   0.0000   0.2850
  10.300   1.3515   0.01403   0.00861  -0.0643  0.0093  0.7930  -6.0681   0.0000   0.2842
  10.400   1.3581   0.01419   0.00878  -0.0638  0.0093  0.7964  -6.1499   0.0000   0.2834
  10.500   1.3648   0.01435   0.00895  -0.0632  0.0092  0.7998  -6.2319   0.0000   0.2825
  10.700   1.3778   0.01470   0.00933  -0.0620  0.0091  0.8065  -6.3953   0.0000   0.2809
  10.800   1.3842   0.01489   0.00953  -0.0614  0.0090  0.8101  -6.4772   0.0000   0.2801
  10.900   1.3904   0.01508   0.00974  -0.0607  0.0089  0.8134  -6.5617   0.0000   0.2793
  11.000   1.3965   0.01529   0.00996  -0.0601  0.0088  0.8173  -6.6455   0.0000   0.2785
  11.100   1.4024   0.01551   0.01019  -0.0595  0.0087  0.8210  -6.7282   0.0000   0.2777
  11.200   1.4081   0.01574   0.01044  -0.0588  0.0086  0.8246  -6.8098   0.0000   0.2769
  11.300   1.4135   0.01599   0.01071  -0.0581  0.0085  0.8286  -6.8896   0.0000   0.2761
  11.400   1.4194   0.01622   0.01095  -0.0575  0.0085  0.8323  -6.9736   0.0000   0.2753
  11.500   1.4259   0.01641   0.01117  -0.0570  0.0085  0.8362  -7.0628   0.0000   0.2746
  11.600   1.4323   0.01662   0.01138  -0.0565  0.0085  0.8403  -7.1526   0.0000   0.2739
  11.700   1.4388   0.01682   0.01161  -0.0559  0.0084  0.8442  -7.2426   0.0000   0.2732
  11.800   1.4451   0.01703   0.01184  -0.0554  0.0084  0.8487  -7.3324   0.0000   0.2725
  11.900   1.4514   0.01725   0.01207  -0.0549  0.0084  0.8530  -7.4228   0.0000   0.2718
  12.000   1.4576   0.01748   0.01231  -0.0544  0.0083  0.8579  -7.5126   0.0000   0.2711
  12.100   1.4637   0.01771   0.01256  -0.0539  0.0083  0.8627  -7.6023   0.0000   0.2704
  12.200   1.4697   0.01794   0.01282  -0.0533  0.0083  0.8683  -7.6917   0.0000   0.2697
  12.300   1.4755   0.01819   0.01309  -0.0528  0.0082  0.8740  -7.7806   0.0000   0.2690
  12.400   1.4814   0.01844   0.01336  -0.0522  0.0082  0.8806  -7.8699   0.0000   0.2683
  12.500   1.4871   0.01869   0.01364  -0.0517  0.0082  0.8877  -7.9588   0.0000   0.2677
  12.600   1.4926   0.01895   0.01392  -0.0511  0.0081  0.8956  -8.0472   0.0000   0.2670
  12.700   1.4981   0.01921   0.01421  -0.0505  0.0081  0.9043  -8.1358   0.0000   0.2663
  12.800   1.5034   0.01947   0.01451  -0.0499  0.0081  0.9134  -8.2233   0.0000   0.2656
  12.900   1.5085   0.01974   0.01481  -0.0493  0.0080  0.9229  -8.3106   0.0000   0.2649
  13.000   1.5134   0.02001   0.01511  -0.0486  0.0080  0.9335  -8.3968   0.0000   0.2641
  13.100   1.5172   0.02026   0.01541  -0.0477  0.0080  0.9511  -8.4774   0.0000   0.2633
  13.300   1.5291   0.02081   0.01604  -0.0469  0.0079  1.0000  -8.6633   0.0000   0.2621
  13.400   1.5346   0.02113   0.01637  -0.0465  0.0079  1.0000  -8.7553   0.0000   0.2616
  13.500   1.5401   0.02145   0.01671  -0.0460  0.0078  1.0000  -8.8504   0.0000   0.2610
  13.600   1.5455   0.02179   0.01705  -0.0456  0.0078  1.0000  -8.9449   0.0000   0.2604
  13.700   1.5509   0.02214   0.01741  -0.0451  0.0078  1.0000  -9.0400   0.0000   0.2598
  13.800   1.5561   0.02249   0.01777  -0.0447  0.0077  1.0000  -9.1344   0.0000   0.2592
  13.900   1.5613   0.02285   0.01814  -0.0442  0.0077  1.0000  -9.2286   0.0000   0.2586
  14.000   1.5665   0.02322   0.01851  -0.0438  0.0077  1.0000  -9.3235   0.0000   0.2581
  14.100   1.5714   0.02360   0.01890  -0.0433  0.0076  1.0000  -9.4174   0.0000   0.2575
  14.200   1.5764   0.02399   0.01930  -0.0429  0.0076  1.0000  -9.5115   0.0000   0.2569
  14.300   1.5812   0.02438   0.01971  -0.0425  0.0076  1.0000  -9.6052   0.0000   0.2564
  14.400   1.5858   0.02480   0.02014  -0.0420  0.0075  1.0000  -9.6975   0.0000   0.2558
  14.500   1.5904   0.02522   0.02057  -0.0415  0.0075  1.0000  -9.7895   0.0000   0.2552
  14.600   1.5946   0.02568   0.02104  -0.0411  0.0074  1.0000  -9.8792   0.0000   0.2547
  14.700   1.5987   0.02614   0.02151  -0.0406  0.0074  1.0000  -9.9680   0.0000   0.2541
  14.800   1.6027   0.02663   0.02201  -0.0401  0.0073  1.0000  -10.0554   0.0000   0.2536
  14.900   1.6063   0.02714   0.02254  -0.0397  0.0073  1.0000  -10.1409   0.0000   0.2530
  15.000   1.6098   0.02766   0.02308  -0.0392  0.0072  1.0000  -10.2254   0.0000   0.2524
  15.100   1.6129   0.02822   0.02367  -0.0387  0.0072  1.0000  -10.3064   0.0000   0.2519
  15.200   1.6158   0.02881   0.02427  -0.0382  0.0071  1.0000  -10.3860   0.0000   0.2513
  15.300   1.6196   0.02932   0.02480  -0.0377  0.0071  1.0000  -10.4747   0.0000   0.2508
  15.400   1.6242   0.02978   0.02528  -0.0374  0.0071  1.0000  -10.5718   0.0000   0.2503
  15.500   1.6287   0.03025   0.02576  -0.0371  0.0071  1.0000  -10.6710   0.0000   0.2498
  15.600   1.6331   0.03074   0.02626  -0.0367  0.0071  1.0000  -10.7690   0.0000   0.2493
  15.700   1.6375   0.03122   0.02675  -0.0364  0.0071  1.0000  -10.8679   0.0000   0.2489
  15.800   1.6419   0.03172   0.02726  -0.0361  0.0071  1.0000  -10.9664   0.0000   0.2484
  15.900   1.6461   0.03223   0.02778  -0.0358  0.0071  1.0000  -11.0645   0.0000   0.2479
  16.000   1.6505   0.03273   0.02830  -0.0355  0.0070  1.0000  -11.1641   0.0000   0.2475
  16.100   1.6546   0.03325   0.02884  -0.0352  0.0070  1.0000  -11.2626   0.0000   0.2470
  16.200   1.6588   0.03378   0.02938  -0.0349  0.0070  1.0000  -11.3614   0.0000   0.2466
  16.300   1.6631   0.03431   0.02992  -0.0346  0.0070  1.0000  -11.4612   0.0000   0.2461
  16.400   1.6670   0.03487   0.03049  -0.0343  0.0070  1.0000  -11.5593   0.0000   0.2457
  16.500   1.6710   0.03542   0.03106  -0.0341  0.0070  1.0000  -11.6579   0.0000   0.2452
  16.600   1.6750   0.03598   0.03164  -0.0338  0.0069  1.0000  -11.7565   0.0000   0.2448
  16.700   1.6787   0.03658   0.03224  -0.0336  0.0069  1.0000  -11.8533   0.0000   0.2444
  16.800   1.6825   0.03717   0.03285  -0.0333  0.0069  1.0000  -11.9509   0.0000   0.2440
  16.900   1.6861   0.03778   0.03347  -0.0331  0.0069  1.0000  -12.0475   0.0000   0.2436
  17.000   1.6895   0.03842   0.03413  -0.0328  0.0069  1.0000  -12.1425   0.0000   0.2431
  17.100   1.6930   0.03905   0.03477  -0.0326  0.0069  1.0000  -12.2388   0.0000   0.2427
  17.200   1.6963   0.03971   0.03545  -0.0324  0.0068  1.0000  -12.3349   0.0000   0.2423
  17.300   1.6995   0.04038   0.03614  -0.0322  0.0068  1.0000  -12.4322   0.0000   0.2419
  17.400   1.7028   0.04104   0.03682  -0.0319  0.0068  1.0000  -12.5305   0.0000   0.2415
  17.500   1.7057   0.04175   0.03754  -0.0317  0.0068  1.0000  -12.6263   0.0000   0.2412
  17.600   1.7088   0.04244   0.03825  -0.0316  0.0068  1.0000  -12.7238   0.0000   0.2408
  17.700   1.7119   0.04315   0.03897  -0.0314  0.0067  1.0000  -12.8207   0.0000   0.2404
  17.800   1.7147   0.04389   0.03973  -0.0312  0.0067  1.0000  -12.9166   0.0000   0.2400
  17.900   1.7178   0.04460   0.04046  -0.0311  0.0067  1.0000  -13.0146   0.0000   0.2397
  18.000   1.7205   0.04536   0.04124  -0.0309  0.0067  1.0000  -13.1101   0.0000   0.2393
  18.100   1.7232   0.04612   0.04201  -0.0308  0.0066  1.0000  -13.2061   0.0000   0.2390
  18.200   1.7261   0.04688   0.04278  -0.0307  0.0066  1.0000  -13.3029   0.0000   0.2386
  18.300   1.7285   0.04768   0.04360  -0.0306  0.0066  1.0000  -13.3968   0.0000   0.2383
  18.400   1.7312   0.04846   0.04440  -0.0305  0.0066  1.0000  -13.4928   0.0000   0.2379
  18.500   1.7336   0.04928   0.04524  -0.0304  0.0066  1.0000  -13.5872   0.0000   0.2376
  18.600   1.7359   0.05012   0.04609  -0.0303  0.0065  1.0000  -13.6804   0.0000   0.2373
  18.700   1.7384   0.05094   0.04693  -0.0302  0.0065  1.0000  -13.7753   0.0000   0.2370
  18.800   1.7404   0.05183   0.04784  -0.0302  0.0065  1.0000  -13.8663   0.0000   0.2367
  18.900   1.7425   0.05270   0.04873  -0.0301  0.0065  1.0000  -13.9585   0.0000   0.2364
  19.000   1.7445   0.05360   0.04965  -0.0301  0.0064  1.0000  -14.0493   0.0000   0.2361
  19.100   1.7461   0.05455   0.05061  -0.0301  0.0064  1.0000  -14.1389   0.0000   0.2358
  19.200   1.7480   0.05547   0.05155  -0.0301  0.0064  1.0000  -14.2318   0.0000   0.2355
  19.300   1.7493   0.05646   0.05257  -0.0301  0.0064  1.0000  -14.3200   0.0000   0.2352
  19.400   1.7508   0.05745   0.05357  -0.0301  0.0064  1.0000  -14.4098   0.0000   0.2350
  19.500   1.7521   0.05846   0.05461  -0.0301  0.0064  1.0000  -14.4976   0.0000   0.2347
  19.600   1.7531   0.05952   0.05568  -0.0302  0.0063  1.0000  -14.5835   0.0000   0.2345
  19.700   1.7543   0.06056   0.05675  -0.0302  0.0063  1.0000  -14.6708   0.0000   0.2342
  19.800   1.7549   0.06168   0.05789  -0.0303  0.0063  1.0000  -14.7528   0.0000   0.2340
  19.900   1.7558   0.06277   0.05900  -0.0304  0.0063  1.0000  -14.8373   0.0000   0.2338
  20.000   1.7560   0.06395   0.06021  -0.0305  0.0062  1.0000  -14.9152   0.0000   0.2336
  20.100   1.7564   0.06512   0.06140  -0.0307  0.0062  1.0000  -14.9948   0.0000   0.2334
  20.200   1.7563   0.06637   0.06268  -0.0308  0.0062  1.0000  -15.0691   0.0000   0.2332
  20.300   1.7561   0.06764   0.06397  -0.0310  0.0062  1.0000  -15.1428   0.0000   0.2330
  20.400   1.7555   0.06898   0.06533  -0.0312  0.0061  1.0000  -15.2118   0.0000   0.2329
  20.500   1.7547   0.07035   0.06673  -0.0314  0.0061  1.0000  -15.2789   0.0000   0.2327
  20.600   1.7533   0.07180   0.06821  -0.0317  0.0061  1.0000  -15.3403   0.0000   0.2326
  20.700   1.7519   0.07328   0.06972  -0.0320  0.0061  1.0000  -15.4000   0.0000   0.2325
  20.800   1.7496   0.07488   0.07136  -0.0323  0.0060  1.0000  -15.4513   0.0000   0.2324
  20.900   1.7474   0.07650   0.07300  -0.0327  0.0060  1.0000  -15.5021   0.0000   0.2324
  21.000   1.7443   0.07825   0.07479  -0.0331  0.0060  1.0000  -15.5439   0.0000   0.2323
  21.100   1.7409   0.08007   0.07665  -0.0336  0.0059  1.0000  -15.5817   0.0000   0.2324
  21.200   1.7372   0.08195   0.07857  -0.0341  0.0059  1.0000  -15.6155   0.0000   0.2324
  21.300   1.7326   0.08397   0.08064  -0.0347  0.0059  1.0000  -15.6395   0.0000   0.2325
  21.400   1.7304   0.08566   0.08236  -0.0352  0.0059  1.0000  -15.6892   0.0000   0.2325
  21.500   1.7296   0.08715   0.08387  -0.0357  0.0059  1.0000  -15.7550   0.0000   0.2325
  21.600   1.7283   0.08873   0.08548  -0.0362  0.0059  1.0000  -15.8148   0.0000   0.2325
  21.700   1.7273   0.09027   0.08705  -0.0367  0.0059  1.0000  -15.8774   0.0000   0.2325
  21.800   1.7256   0.09194   0.08875  -0.0373  0.0059  1.0000  -15.9319   0.0000   0.2326
  21.900   1.7244   0.09355   0.09038  -0.0379  0.0059  1.0000  -15.9923   0.0000   0.2327
  22.000   1.7224   0.09528   0.09214  -0.0386  0.0058  1.0000  -16.0455   0.0000   0.2328
  22.100   1.7206   0.09698   0.09387  -0.0392  0.0058  1.0000  -16.1004   0.0000   0.2329
  22.200   1.7186   0.09872   0.09564  -0.0399  0.0058  1.0000  -16.1520   0.0000   0.2330
  22.300   1.7161   0.10055   0.09750  -0.0407  0.0058  1.0000  -16.1981   0.0000   0.2332
  22.400   1.7140   0.10233   0.09931  -0.0414  0.0058  1.0000  -16.2475   0.0000   0.2333
  22.500   1.7113   0.10422   0.10123  -0.0423  0.0058  1.0000  -16.2895   0.0000   0.2335
  22.600   1.7085   0.10612   0.10317  -0.0431  0.0058  1.0000  -16.3300   0.0000   0.2338
  22.700   1.7060   0.10800   0.10508  -0.0440  0.0058  1.0000  -16.3728   0.0000   0.2340
  22.800   1.7029   0.10999   0.10709  -0.0449  0.0058  1.0000  -16.4078   0.0000   0.2343
  22.900   1.6997   0.11199   0.10913  -0.0459  0.0058  1.0000  -16.4408   0.0000   0.2346
  23.000   1.6967   0.11397   0.11114  -0.0469  0.0058  1.0000  -16.4749   0.0000   0.2349
  23.100   1.6933   0.11602   0.11322  -0.0479  0.0058  1.0000  -16.5038   0.0000   0.2353
  23.200   1.6895   0.11815   0.11538  -0.0490  0.0058  1.0000  -16.5267   0.0000   0.2357
  23.300   1.6859   0.12026   0.11752  -0.0502  0.0058  1.0000  -16.5507   0.0000   0.2361
  23.400   1.6824   0.12235   0.11965  -0.0513  0.0058  1.0000  -16.5747   0.0000   0.2365
  23.500   1.6784   0.12454   0.12187  -0.0526  0.0058  1.0000  -16.5917   0.0000   0.2370
  23.600   1.6742   0.12679   0.12416  -0.0538  0.0058  1.0000  -16.6035   0.0000   0.2375
  23.700   1.6700   0.12903   0.12643  -0.0552  0.0057  1.0000  -16.6148   0.0000   0.2380
  23.800   1.6658   0.13127   0.12871  -0.0565  0.0057  1.0000  -16.6249   0.0000   0.2386
  23.900   1.6613   0.13355   0.13103  -0.0579  0.0057  1.0000  -16.6300   0.0000   0.2392
  24.000   1.6563   0.13595   0.13346  -0.0594  0.0057  1.0000  -16.6264   0.0000   0.2399
  24.100   1.6512   0.13838   0.13593  -0.0610  0.0057  1.0000  -16.6191   0.0000   0.2406
  24.200   1.6460   0.14083   0.13841  -0.0625  0.0057  1.0000  -16.6095   0.0000   0.2414
  24.300   1.6409   0.14328   0.14090  -0.0642  0.0057  1.0000  -16.5979   0.0000   0.2421
  24.400   1.6356   0.14576   0.14342  -0.0658  0.0057  1.0000  -16.5827   0.0000   0.2429
  24.500   1.6300   0.14830   0.14600  -0.0676  0.0057  1.0000  -16.5607   0.0000   0.2438
  24.600   1.6239   0.15095   0.14869  -0.0694  0.0057  1.0000  -16.5295   0.0000   0.2448
  24.700   1.6174   0.15368   0.15145  -0.0713  0.0057  1.0000  -16.4905   0.0000   0.2458
  24.800   1.6107   0.15647   0.15428  -0.0733  0.0057  1.0000  -16.4445   0.0000   0.2469
  24.900   1.6037   0.15930   0.15716  -0.0754  0.0057  1.0000  -16.3918   0.0000   0.2480
  25.000   1.5964   0.16221   0.16010  -0.0776  0.0057  1.0000  -16.3323   0.0000   0.2493


