xflr5 v6.47

 Calculated polar for: NACA 65(2)-415

 1 1 Reynolds number fixed          Mach number fixed         

 xtrf =   1.000 (top)        1.000 (bottom)
 Mach =   0.000     Re =     6.000 e 6     Ncrit =   9.000

  alpha     CL        CD       CDp       Cm    Top Xtr Bot Xtr   Cpmin    Chinge    XCp    
 ------- -------- --------- --------- -------- ------- ------- -------- --------- ---------
 -24.400  -0.7887   0.24396   0.24317   0.0409  1.0000  0.0039  -6.3077   0.0000   0.2619
 -24.300  -0.7861   0.24270   0.24192   0.0398  1.0000  0.0039  -6.3078   0.0000   0.2610
 -24.200  -0.7833   0.24149   0.24071   0.0388  1.0000  0.0040  -6.3004   0.0000   0.2601
 -24.100  -0.7807   0.24025   0.23947   0.0378  1.0000  0.0040  -6.2961   0.0000   0.2592
 -24.000  -0.7783   0.23889   0.23810   0.0368  1.0000  0.0041  -6.3070   0.0000   0.2581
 -23.900  -0.7760   0.23746   0.23667   0.0357  1.0000  0.0041  -6.3233   0.0000   0.2571
 -23.800  -0.7796   0.23373   0.23293   0.0336  1.0000  0.0043  -6.6275   0.0000   0.2541
 -23.700  -0.7901   0.22749   0.22666   0.0304  1.0000  0.0046  -7.2189   0.0000   0.2491
 -23.600  -0.7969   0.22304   0.22217   0.0278  1.0000  0.0047  -7.5882   0.0000   0.2455
 -23.500  -0.7946   0.22168   0.22081   0.0267  1.0000  0.0048  -7.5857   0.0000   0.2445
 -23.100  -1.2578   0.11196   0.11007  -0.0413  1.0000  0.0053  -18.2052   0.0000   0.1780
 -23.000  -1.2971   0.10385   0.10184  -0.0462  1.0000  0.0053  -18.7967   0.0000   0.1758
 -22.900  -1.3232   0.09806   0.09596  -0.0496  1.0000  0.0053  -19.1580   0.0000   0.1743
 -22.800  -1.3446   0.09315   0.09098  -0.0524  1.0000  0.0053  -19.4348   0.0000   0.1732
 -22.700  -1.3620   0.08894   0.08671  -0.0549  1.0000  0.0053  -19.6421   0.0000   0.1723
 -22.600  -1.3767   0.08523   0.08294  -0.0570  1.0000  0.0053  -19.8024   0.0000   0.1715
 -22.500  -1.3894   0.08188   0.07954  -0.0589  1.0000  0.0053  -19.9287   0.0000   0.1709
 -22.400  -1.4008   0.07878   0.07639  -0.0607  1.0000  0.0053  -20.0316   0.0000   0.1704
 -22.300  -1.4107   0.07593   0.07349  -0.0623  1.0000  0.0053  -20.1098   0.0000   0.1699
 -22.200  -1.4195   0.07328   0.07080  -0.0637  1.0000  0.0053  -20.1694   0.0000   0.1695
 -22.100  -1.4273   0.07083   0.06831  -0.0651  1.0000  0.0053  -20.2118   0.0000   0.1692
 -22.000  -1.4345   0.06851   0.06594  -0.0663  1.0000  0.0053  -20.2435   0.0000   0.1689
 -21.900  -1.4408   0.06633   0.06373  -0.0674  1.0000  0.0053  -20.2612   0.0000   0.1686
 -21.800  -1.4464   0.06428   0.06164  -0.0684  1.0000  0.0053  -20.2667   0.0000   0.1684
 -21.700  -1.4513   0.06235   0.05968  -0.0694  1.0000  0.0053  -20.2625   0.0000   0.1683
 -21.600  -1.4558   0.06052   0.05781  -0.0703  1.0000  0.0053  -20.2503   0.0000   0.1681
 -21.500  -1.4598   0.05877   0.05603  -0.0711  1.0000  0.0054  -20.2302   0.0000   0.1680
 -21.400  -1.4632   0.05711   0.05434  -0.0718  1.0000  0.0054  -20.2024   0.0000   0.1679
 -21.300  -1.4662   0.05553   0.05272  -0.0725  1.0000  0.0054  -20.1676   0.0000   0.1679
 -21.200  -1.4688   0.05402   0.05119  -0.0731  1.0000  0.0054  -20.1263   0.0000   0.1678
 -21.100  -1.4710   0.05259   0.04973  -0.0737  1.0000  0.0054  -20.0791   0.0000   0.1678
 -21.000  -1.4729   0.05122   0.04833  -0.0743  1.0000  0.0055  -20.0272   0.0000   0.1678
 -20.900  -1.4744   0.04988   0.04696  -0.0748  1.0000  0.0055  -19.9710   0.0000   0.1678
 -20.800  -1.4757   0.04861   0.04566  -0.0752  1.0000  0.0055  -19.9099   0.0000   0.1678
 -20.700  -1.4765   0.04740   0.04443  -0.0756  1.0000  0.0055  -19.8428   0.0000   0.1679
 -20.600  -1.4771   0.04624   0.04324  -0.0760  1.0000  0.0055  -19.7731   0.0000   0.1679
 -20.500  -1.4776   0.04510   0.04207  -0.0764  1.0000  0.0055  -19.7011   0.0000   0.1680
 -20.400  -1.4775   0.04403   0.04098  -0.0767  1.0000  0.0056  -19.6220   0.0000   0.1680
 -20.300  -1.4772   0.04299   0.03992  -0.0770  1.0000  0.0056  -19.5402   0.0000   0.1681
 -20.200  -1.4768   0.04198   0.03888  -0.0772  1.0000  0.0056  -19.4571   0.0000   0.1682
 -20.100  -1.4761   0.04103   0.03791  -0.0774  1.0000  0.0056  -19.3687   0.0000   0.1683
 -20.000  -1.4752   0.04010   0.03696  -0.0776  1.0000  0.0056  -19.2791   0.0000   0.1684
 -19.900  -1.4741   0.03920   0.03603  -0.0778  1.0000  0.0057  -19.1866   0.0000   0.1685
 -19.800  -1.4727   0.03834   0.03515  -0.0780  1.0000  0.0057  -19.0900   0.0000   0.1686
 -19.700  -1.4713   0.03749   0.03428  -0.0781  1.0000  0.0057  -18.9935   0.0000   0.1687
 -19.600  -1.4696   0.03669   0.03346  -0.0782  1.0000  0.0057  -18.8931   0.0000   0.1688
 -19.500  -1.4678   0.03591   0.03266  -0.0783  1.0000  0.0057  -18.7920   0.0000   0.1689
 -19.400  -1.4659   0.03516   0.03189  -0.0784  1.0000  0.0057  -18.6892   0.0000   0.1691
 -19.300  -1.4636   0.03444   0.03115  -0.0784  1.0000  0.0057  -18.5829   0.0000   0.1692
 -19.200  -1.4614   0.03373   0.03042  -0.0784  1.0000  0.0058  -18.4763   0.0000   0.1693
 -19.100  -1.4588   0.03305   0.02972  -0.0784  1.0000  0.0058  -18.3660   0.0000   0.1695
 -19.000  -1.4563   0.03238   0.02903  -0.0784  1.0000  0.0058  -18.2564   0.0000   0.1696
 -18.900  -1.4549   0.03161   0.02824  -0.0784  1.0000  0.0058  -18.1618   0.0000   0.1698
 -18.800  -1.4532   0.03087   0.02747  -0.0784  1.0000  0.0059  -18.0641   0.0000   0.1700
 -18.700  -1.4514   0.03015   0.02673  -0.0783  1.0000  0.0060  -17.9646   0.0000   0.1703
 -18.600  -1.4493   0.02947   0.02603  -0.0782  1.0000  0.0060  -17.8609   0.0000   0.1705
 -18.500  -1.4469   0.02881   0.02535  -0.0781  1.0000  0.0061  -17.7547   0.0000   0.1707
 -18.400  -1.4442   0.02817   0.02470  -0.0780  1.0000  0.0061  -17.6457   0.0000   0.1709
 -18.300  -1.4413   0.02757   0.02408  -0.0779  1.0000  0.0062  -17.5334   0.0000   0.1711
 -18.200  -1.4383   0.02698   0.02347  -0.0778  1.0000  0.0062  -17.4199   0.0000   0.1713
 -18.100  -1.4349   0.02642   0.02290  -0.0777  1.0000  0.0063  -17.3029   0.0000   0.1715
 -18.000  -1.4313   0.02588   0.02234  -0.0775  1.0000  0.0063  -17.1841   0.0000   0.1717
 -17.900  -1.4276   0.02537   0.02181  -0.0774  1.0000  0.0064  -17.0633   0.0000   0.1718
 -17.800  -1.4237   0.02487   0.02130  -0.0772  1.0000  0.0064  -16.9409   0.0000   0.1720
 -17.700  -1.4196   0.02438   0.02080  -0.0770  1.0000  0.0065  -16.8171   0.0000   0.1722
 -17.600  -1.4153   0.02392   0.02032  -0.0769  1.0000  0.0065  -16.6912   0.0000   0.1724
 -17.500  -1.4109   0.02347   0.01985  -0.0767  1.0000  0.0066  -16.5647   0.0000   0.1725
 -17.400  -1.4063   0.02304   0.01941  -0.0765  1.0000  0.0066  -16.4364   0.0000   0.1727
 -17.300  -1.4016   0.02262   0.01897  -0.0763  1.0000  0.0066  -16.3072   0.0000   0.1729
 -17.200  -1.3967   0.02222   0.01856  -0.0761  1.0000  0.0067  -16.1765   0.0000   0.1730
 -17.100  -1.3917   0.02182   0.01815  -0.0759  1.0000  0.0067  -16.0494   0.0000   0.1732
 -17.000  -1.3866   0.02145   0.01776  -0.0756  1.0000  0.0068  -15.9213   0.0000   0.1734
 -16.900  -1.3814   0.02108   0.01739  -0.0754  1.0000  0.0068  -15.7923   0.0000   0.1735
 -16.800  -1.3761   0.02073   0.01702  -0.0752  1.0000  0.0068  -15.6626   0.0000   0.1737
 -16.700  -1.3707   0.02039   0.01667  -0.0749  1.0000  0.0069  -15.5322   0.0000   0.1739
 -16.600  -1.3652   0.02006   0.01633  -0.0747  1.0000  0.0069  -15.4016   0.0000   0.1740
 -16.500  -1.3596   0.01974   0.01599  -0.0744  1.0000  0.0069  -15.2702   0.0000   0.1742
 -16.400  -1.3539   0.01943   0.01567  -0.0741  1.0000  0.0069  -15.1389   0.0000   0.1744
 -16.300  -1.3482   0.01913   0.01536  -0.0738  1.0000  0.0070  -15.0071   0.0000   0.1745
 -16.200  -1.3427   0.01883   0.01504  -0.0735  1.0000  0.0070  -14.8782   0.0000   0.1747
 -16.000  -1.3373   0.01815   0.01434  -0.0718  0.9906  0.0072  -14.6703   0.0000   0.1762
 -15.900  -1.3234   0.01777   0.01395  -0.0732  0.9860  0.0073  -14.4769   0.0000   0.1748
 -15.800  -1.3080   0.01741   0.01358  -0.0748  0.9829  0.0075  -14.2713   0.0000   0.1730
 -15.700  -1.2918   0.01707   0.01323  -0.0766  0.9805  0.0076  -14.0608   0.0000   0.1711
 -15.600  -1.2752   0.01675   0.01290  -0.0784  0.9791  0.0077  -13.8476   0.0000   0.1690
 -15.500  -1.2576   0.01644   0.01258  -0.0804  0.9777  0.0078  -13.6277   0.0000   0.1667
 -15.400  -1.2397   0.01614   0.01228  -0.0825  0.9758  0.0079  -13.4071   0.0000   0.1643
 -15.300  -1.2219   0.01586   0.01199  -0.0844  0.9729  0.0080  -13.1887   0.0000   0.1618
 -15.200  -1.2045   0.01560   0.01171  -0.0863  0.9681  0.0081  -12.9743   0.0000   0.1594
 -15.100  -1.1897   0.01538   0.01145  -0.0876  0.9561  0.0082  -12.7808   0.0000   0.1576
 -15.000  -1.1842   0.01524   0.01124  -0.0870  0.9382  0.0082  -12.6583   0.0000   0.1579
 -14.900  -1.1798   0.01508   0.01103  -0.0862  0.9264  0.0083  -12.5441   0.0000   0.1586
 -14.800  -1.1751   0.01492   0.01083  -0.0854  0.9174  0.0083  -12.4279   0.0000   0.1591
 -14.600  -1.1658   0.01454   0.01039  -0.0838  0.9029  0.0085  -12.2008   0.0000   0.1602
 -14.500  -1.1613   0.01434   0.01017  -0.0830  0.8969  0.0086  -12.0891   0.0000   0.1608
 -14.400  -1.1567   0.01416   0.00996  -0.0822  0.8909  0.0087  -11.9767   0.0000   0.1614
 -14.300  -1.1522   0.01398   0.00976  -0.0813  0.8858  0.0088  -11.8643   0.0000   0.1620
 -14.200  -1.1480   0.01381   0.00957  -0.0804  0.8803  0.0089  -11.7548   0.0000   0.1628
 -14.100  -1.1440   0.01365   0.00939  -0.0794  0.8755  0.0090  -11.6470   0.0000   0.1636
 -14.000  -1.1401   0.01351   0.00924  -0.0783  0.8703  0.0091  -11.5398   0.0000   0.1644
 -13.900  -1.1343   0.01339   0.00910  -0.0776  0.8664  0.0092  -11.4194   0.0000   0.1649
 -13.800  -1.1270   0.01326   0.00895  -0.0771  0.8624  0.0093  -11.2877   0.0000   0.1650
 -13.700  -1.1194   0.01314   0.00881  -0.0767  0.8586  0.0094  -11.1550   0.0000   0.1650
 -13.600  -1.1113   0.01301   0.00867  -0.0764  0.8553  0.0095  -11.0198   0.0000   0.1650
 -13.500  -1.1033   0.01289   0.00854  -0.0760  0.8515  0.0096  -10.8848   0.0000   0.1649
 -13.400  -1.0950   0.01278   0.00841  -0.0757  0.8481  0.0096  -10.7495   0.0000   0.1649
 -13.300  -1.0865   0.01267   0.00828  -0.0754  0.8450  0.0097  -10.6127   0.0000   0.1647
 -13.200  -1.0779   0.01256   0.00816  -0.0752  0.8415  0.0098  -10.4764   0.0000   0.1646
 -13.100  -1.0693   0.01245   0.00803  -0.0749  0.8383  0.0098  -10.3402   0.0000   0.1644
 -13.000  -1.0611   0.01230   0.00787  -0.0746  0.8354  0.0100  -10.2094   0.0000   0.1643
 -12.900  -1.0526   0.01216   0.00772  -0.0743  0.8322  0.0101  -10.0775   0.0000   0.1641
 -12.700  -1.0351   0.01192   0.00746  -0.0738  0.8264  0.0104  -9.8101   0.0000   0.1637
 -12.600  -1.0260   0.01181   0.00734  -0.0736  0.8235  0.0105  -9.6794   0.0000   0.1633
 -12.500  -1.0169   0.01171   0.00723  -0.0734  0.8205  0.0106  -9.5491   0.0000   0.1630
 -12.400  -1.0076   0.01160   0.00712  -0.0733  0.8178  0.0108  -9.4186   0.0000   0.1627
 -12.300  -0.9982   0.01150   0.00701  -0.0731  0.8153  0.0109  -9.2875   0.0000   0.1622
 -12.200  -0.9887   0.01141   0.00690  -0.0730  0.8125  0.0110  -9.1571   0.0000   0.1618
 -12.100  -0.9792   0.01131   0.00680  -0.0728  0.8096  0.0111  -9.0272   0.0000   0.1614
 -12.000  -0.9695   0.01122   0.00670  -0.0727  0.8072  0.0111  -8.8971   0.0000   0.1609
 -11.900  -0.9597   0.01113   0.00660  -0.0726  0.8048  0.0112  -8.7670   0.0000   0.1603
 -11.800  -0.9500   0.01105   0.00650  -0.0725  0.8021  0.0113  -8.6377   0.0000   0.1598
 -11.700  -0.9402   0.01096   0.00641  -0.0724  0.7994  0.0113  -8.5090   0.0000   0.1592
 -11.600  -0.9302   0.01088   0.00632  -0.0723  0.7971  0.0114  -8.3800   0.0000   0.1586
 -11.500  -0.9201   0.01080   0.00623  -0.0723  0.7947  0.0114  -8.2511   0.0000   0.1579
 -11.400  -0.9107   0.01068   0.00609  -0.0721  0.7920  0.0116  -8.1288   0.0000   0.1574
 -11.300  -0.9011   0.01057   0.00597  -0.0720  0.7893  0.0118  -8.0064   0.0000   0.1568
 -11.200  -0.8913   0.01046   0.00586  -0.0719  0.7871  0.0120  -7.8820   0.0000   0.1561
 -11.100  -0.8812   0.01037   0.00576  -0.0719  0.7847  0.0121  -7.7570   0.0000   0.1554
 -11.000  -0.8711   0.01028   0.00567  -0.0718  0.7822  0.0122  -7.6324   0.0000   0.1546
 -10.900  -0.8610   0.01020   0.00559  -0.0717  0.7795  0.0123  -7.5086   0.0000   0.1538
 -10.800  -0.8508   0.01012   0.00550  -0.0717  0.7773  0.0124  -7.3848   0.0000   0.1529
 -10.700  -0.8405   0.01004   0.00542  -0.0717  0.7750  0.0125  -7.2613   0.0000   0.1520
 -10.600  -0.8302   0.00997   0.00533  -0.0716  0.7725  0.0126  -7.1387   0.0000   0.1511
 -10.500  -0.8199   0.00990   0.00525  -0.0716  0.7699  0.0127  -7.0172   0.0000   0.1502
 -10.400  -0.8095   0.00982   0.00517  -0.0716  0.7676  0.0128  -6.8960   0.0000   0.1492
 -10.300  -0.7990   0.00975   0.00509  -0.0716  0.7654  0.0129  -6.7780   0.0000   0.1481
 -10.200  -0.7885   0.00968   0.00501  -0.0716  0.7629  0.0130  -6.6625   0.0000   0.1470
 -10.100  -0.7780   0.00961   0.00494  -0.0716  0.7604  0.0130  -6.5479   0.0000   0.1459
 -10.000  -0.7675   0.00955   0.00486  -0.0716  0.7581  0.0131  -6.4337   0.0000   0.1447
  -9.900  -0.7568   0.00948   0.00479  -0.0716  0.7560  0.0131  -6.3194   0.0000   0.1434
  -9.800  -0.7461   0.00942   0.00473  -0.0716  0.7536  0.0132  -6.2057   0.0000   0.1421
  -9.700  -0.7356   0.00936   0.00465  -0.0716  0.7511  0.0132  -6.0938   0.0000   0.1408
  -9.600  -0.7255   0.00924   0.00452  -0.0716  0.7487  0.0135  -5.9880   0.0000   0.1396
  -9.500  -0.7151   0.00914   0.00442  -0.0715  0.7467  0.0137  -5.8800   0.0000   0.1383
  -9.400  -0.7045   0.00906   0.00433  -0.0715  0.7445  0.0138  -5.7715   0.0000   0.1369
  -9.300  -0.6939   0.00898   0.00425  -0.0716  0.7422  0.0139  -5.6633   0.0000   0.1354
  -9.200  -0.6833   0.00892   0.00417  -0.0716  0.7398  0.0141  -5.5556   0.0000   0.1338
  -9.100  -0.6725   0.00885   0.00410  -0.0716  0.7379  0.0142  -5.4480   0.0000   0.1322
  -9.000  -0.6617   0.00878   0.00403  -0.0716  0.7359  0.0143  -5.3410   0.0000   0.1304
  -8.900  -0.6509   0.00872   0.00396  -0.0717  0.7338  0.0144  -5.2365   0.0000   0.1286
  -8.800  -0.6401   0.00866   0.00390  -0.0717  0.7315  0.0145  -5.1352   0.0000   0.1267
  -8.600  -0.6183   0.00854   0.00377  -0.0718  0.7275  0.0147  -4.9343   0.0000   0.1227
  -8.500  -0.6074   0.00848   0.00371  -0.0719  0.7257  0.0148  -4.8348   0.0000   0.1206
  -8.400  -0.5964   0.00842   0.00364  -0.0719  0.7236  0.0149  -4.7363   0.0000   0.1184
  -8.300  -0.5855   0.00837   0.00358  -0.0720  0.7215  0.0150  -4.6387   0.0000   0.1161
  -8.100  -0.5635   0.00826   0.00346  -0.0721  0.7178  0.0151  -4.4453   0.0000   0.1111
  -8.000  -0.5524   0.00821   0.00341  -0.0722  0.7161  0.0151  -4.3492   0.0000   0.1084
  -7.900  -0.5413   0.00816   0.00335  -0.0723  0.7142  0.0152  -4.2561   0.0000   0.1056
  -7.800  -0.5305   0.00807   0.00326  -0.0723  0.7122  0.0154  -4.1691   0.0000   0.1029
  -7.700  -0.5197   0.00799   0.00317  -0.0724  0.7102  0.0156  -4.0823   0.0000   0.1000
  -7.600  -0.5087   0.00792   0.00309  -0.0724  0.7084  0.0158  -3.9949   0.0000   0.0969
  -7.500  -0.4976   0.00786   0.00303  -0.0725  0.7069  0.0160  -3.9074   0.0000   0.0936
  -7.400  -0.4865   0.00780   0.00296  -0.0726  0.7052  0.0161  -3.8203   0.0000   0.0901
  -7.300  -0.4754   0.00774   0.00291  -0.0727  0.7033  0.0163  -3.7337   0.0000   0.0864
  -7.200  -0.4643   0.00769   0.00285  -0.0727  0.7015  0.0164  -3.6496   0.0000   0.0826
  -7.000  -0.4419   0.00759   0.00275  -0.0729  0.6981  0.0167  -3.4868   0.0000   0.0742
  -6.900  -0.4307   0.00754   0.00269  -0.0730  0.6966  0.0168  -3.4064   0.0000   0.0697
  -6.800  -0.4194   0.00749   0.00264  -0.0731  0.6949  0.0169  -3.3267   0.0000   0.0648
  -6.700  -0.4082   0.00744   0.00259  -0.0732  0.6931  0.0170  -3.2476   0.0000   0.0598
  -6.600  -0.3970   0.00740   0.00254  -0.0733  0.6913  0.0171  -3.1706   0.0000   0.0544
  -6.400  -0.3744   0.00732   0.00245  -0.0735  0.6881  0.0173  -3.0221   0.0000   0.0426
  -6.300  -0.3630   0.00727   0.00241  -0.0737  0.6867  0.0173  -2.9487   0.0000   0.0360
  -6.200  -0.3518   0.00721   0.00234  -0.0738  0.6851  0.0176  -2.8783   0.0000   0.0292
  -6.100  -0.3405   0.00715   0.00227  -0.0739  0.6834  0.0179  -2.8088   0.0000   0.0219
  -6.000  -0.3293   0.00710   0.00222  -0.0740  0.6816  0.0181  -2.7420   0.0000   0.0141
  -5.800  -0.3066   0.00701   0.00213  -0.0742  0.6785  0.0186  -2.6080   0.0000  -0.0034
  -5.700  -0.2952   0.00696   0.00208  -0.0743  0.6771  0.0188  -2.5416   0.0000  -0.0134
  -5.600  -0.2838   0.00692   0.00204  -0.0744  0.6755  0.0190  -2.4758   0.0000  -0.0241
  -5.500  -0.2724   0.00688   0.00200  -0.0746  0.6739  0.0192  -2.4107   0.0000  -0.0357
  -5.400  -0.2610   0.00684   0.00196  -0.0747  0.6722  0.0194  -2.3462   0.0000  -0.0483
  -5.300  -0.2496   0.00681   0.00192  -0.0748  0.6705  0.0195  -2.2849   0.0000  -0.0620
  -5.200  -0.2382   0.00677   0.00188  -0.0749  0.6691  0.0197  -2.2244   0.0000  -0.0772
  -5.100  -0.2267   0.00673   0.00184  -0.0751  0.6678  0.0199  -2.1653   0.0000  -0.0941
  -5.000  -0.2152   0.00668   0.00179  -0.0752  0.6664  0.0204  -2.1074   0.0000  -0.1126
  -4.900  -0.2038   0.00664   0.00175  -0.0753  0.6648  0.0209  -2.0490   0.0000  -0.1332
  -4.800  -0.1924   0.00660   0.00172  -0.0755  0.6632  0.0213  -1.9908   0.0000  -0.1562
  -4.700  -0.1809   0.00657   0.00168  -0.0756  0.6616  0.0217  -1.9331   0.0000  -0.1822
  -4.600  -0.1695   0.00654   0.00165  -0.0757  0.6598  0.0220  -1.8759   0.0000  -0.2117
  -4.500  -0.1579   0.00650   0.00162  -0.0759  0.6587  0.0223  -1.8187   0.0000  -0.2461
  -4.400  -0.1464   0.00646   0.00158  -0.0760  0.6574  0.0232  -1.7631   0.0000  -0.2856
  -4.300  -0.1349   0.00642   0.00154  -0.0761  0.6560  0.0240  -1.7074   0.0000  -0.3318
  -4.200  -0.1233   0.00638   0.00151  -0.0763  0.6545  0.0246  -1.6522   0.0000  -0.3867
  -4.100  -0.1118   0.00636   0.00148  -0.0764  0.6530  0.0252  -1.5974   0.0000  -0.4529
  -4.000  -0.1003   0.00632   0.00145  -0.0766  0.6514  0.0262  -1.5436   0.0000  -0.5340
  -3.900  -0.0888   0.00629   0.00142  -0.0767  0.6499  0.0273  -1.4901   0.0000  -0.6362
  -3.800  -0.0772   0.00625   0.00139  -0.0769  0.6488  0.0282  -1.4397   0.0000  -0.7705
  -3.700  -0.0656   0.00622   0.00136  -0.0770  0.6476  0.0294  -1.3899   0.0000  -0.9521
  -3.600  -0.0541   0.00618   0.00133  -0.0772  0.6462  0.0310  -1.3406   0.0000  -1.2105
  -3.500  -0.0425   0.00615   0.00130  -0.0773  0.6448  0.0322  -1.2916   0.0000  -1.6100
  -3.400  -0.0310   0.00611   0.00127  -0.0774  0.6433  0.0347  -1.2434   0.0000  -2.3029
  -3.300  -0.0195   0.00607   0.00124  -0.0776  0.6418  0.0374  -1.1956   0.0000  -3.8145
  -3.200  -0.0080   0.00603   0.00121  -0.0777  0.6402  0.0412  -1.1483   0.0000  -9.6622
  -3.100   0.0036   0.00597   0.00118  -0.0779  0.6393  0.0477  -1.1015   0.0000  22.5893
  -3.000   0.0151   0.00591   0.00115  -0.0781  0.6381  0.0565  -1.0554   0.0000   5.5274
  -2.900   0.0266   0.00584   0.00111  -0.0782  0.6369  0.0668  -1.0097   0.0000   3.2461
  -2.800   0.0380   0.00577   0.00108  -0.0784  0.6355  0.0791  -0.9646   0.0000   2.3458
  -2.700   0.0495   0.00569   0.00105  -0.0785  0.6342  0.0925  -0.9201   0.0000   1.8627
  -2.600   0.0609   0.00561   0.00101  -0.0787  0.6327  0.1096  -0.8761   0.0000   1.5623
  -2.400   0.0837   0.00543   0.00094  -0.0790  0.6300  0.1490  -0.7896   0.0000   1.2070
  -2.300   0.0952   0.00533   0.00091  -0.0792  0.6291  0.1697  -0.7468   0.0000   1.0926
  -2.200   0.1067   0.00524   0.00088  -0.0794  0.6279  0.1922  -0.7045   0.0000   1.0031
  -2.100   0.1182   0.00513   0.00084  -0.0796  0.6267  0.2174  -0.6646   0.0000   0.9312
  -2.000   0.1297   0.00503   0.00081  -0.0798  0.6255  0.2424  -0.6256   0.0000   0.8719
  -1.900   0.1411   0.00492   0.00078  -0.0800  0.6241  0.2686  -0.5882   0.0000   0.8224
  -1.800   0.1526   0.00483   0.00075  -0.0802  0.6227  0.2945  -0.5937   0.0000   0.7803
  -1.600   0.1755   0.00458   0.00068  -0.0806  0.6202  0.3588  -0.6048   0.0000   0.7129
  -1.500   0.1870   0.00445   0.00064  -0.0809  0.6193  0.3918  -0.6104   0.0000   0.6852
  -1.400   0.1986   0.00432   0.00061  -0.0811  0.6182  0.4228  -0.6160   0.0000   0.6608
  -1.300   0.2101   0.00419   0.00058  -0.0813  0.6171  0.4571  -0.6216   0.0000   0.6390
  -1.200   0.2217   0.00408   0.00056  -0.0815  0.6158  0.4888  -0.6274   0.0000   0.6195
  -1.100   0.2332   0.00399   0.00055  -0.0817  0.6146  0.5164  -0.6331   0.0000   0.6018
  -1.000   0.2449   0.00395   0.00054  -0.0819  0.6132  0.5330  -0.6389   0.0000   0.5855
  -0.900   0.2566   0.00392   0.00054  -0.0821  0.6118  0.5430  -0.6447   0.0000   0.5707
  -0.800   0.2684   0.00391   0.00054  -0.0823  0.6106  0.5517  -0.6505   0.0000   0.5571
  -0.700   0.2802   0.00389   0.00054  -0.0825  0.6097  0.5584  -0.6564   0.0000   0.5445
  -0.600   0.2920   0.00388   0.00055  -0.0827  0.6084  0.5637  -0.6623   0.0000   0.5331
  -0.400   0.3156   0.00387   0.00055  -0.0830  0.6052  0.5740  -0.6740   0.0000   0.5126
  -0.300   0.3273   0.00387   0.00056  -0.0832  0.6031  0.5777  -0.6799   0.0000   0.5035
  -0.200   0.3390   0.00388   0.00056  -0.0834  0.6010  0.5810  -0.6858   0.0000   0.4951
  -0.100   0.3508   0.00387   0.00056  -0.0835  0.5994  0.5843  -0.6919   0.0000   0.4871
   0.000   0.3626   0.00388   0.00057  -0.0837  0.5974  0.5870  -0.6979   0.0000   0.4797
   0.100   0.3743   0.00389   0.00057  -0.0839  0.5951  0.5894  -0.7038   0.0000   0.4728
   0.200   0.3859   0.00389   0.00058  -0.0840  0.5927  0.5924  -0.7097   0.0000   0.4663
   0.300   0.3977   0.00390   0.00059  -0.0842  0.5908  0.5953  -0.7157   0.0000   0.4601
   0.400   0.4095   0.00390   0.00059  -0.0844  0.5891  0.5977  -0.7217   0.0000   0.4543
   0.500   0.4212   0.00391   0.00060  -0.0846  0.5870  0.6003  -0.7277   0.0000   0.4488
   0.600   0.4329   0.00392   0.00061  -0.0847  0.5846  0.6029  -0.7338   0.0000   0.4437
   0.700   0.4445   0.00393   0.00062  -0.0849  0.5819  0.6051  -0.7398   0.0000   0.4388
   0.800   0.4563   0.00394   0.00062  -0.0850  0.5799  0.6068  -0.7460   0.0000   0.4341
   0.900   0.4680   0.00395   0.00063  -0.0852  0.5773  0.6080  -0.7521   0.0000   0.4297
   1.100   0.4913   0.00398   0.00065  -0.0855  0.5715  0.6109  -0.7642   0.0000   0.4214
   1.200   0.5030   0.00399   0.00066  -0.0857  0.5692  0.6122  -0.7703   0.0000   0.4176
   1.300   0.5147   0.00400   0.00067  -0.0858  0.5665  0.6135  -0.7765   0.0000   0.4139
   1.400   0.5263   0.00403   0.00068  -0.0860  0.5638  0.6148  -0.7826   0.0000   0.4104
   1.500   0.5380   0.00404   0.00069  -0.0861  0.5616  0.6160  -0.7889   0.0000   0.4071
   1.600   0.5497   0.00405   0.00070  -0.0863  0.5591  0.6171  -0.7951   0.0000   0.4038
   1.700   0.5611   0.00408   0.00071  -0.0864  0.5548  0.6181  -0.8012   0.0000   0.4007
   1.900   0.5838   0.00415   0.00075  -0.0866  0.5432  0.6208  -0.8134   0.0000   0.3949
   2.000   0.5952   0.00419   0.00077  -0.0867  0.5363  0.6223  -0.8195   0.0000   0.3921
   2.100   0.6063   0.00424   0.00079  -0.0868  0.5273  0.6236  -0.8256   0.0000   0.3895
   2.200   0.6172   0.00431   0.00082  -0.0868  0.5168  0.6250  -0.8315   0.0000   0.3869
   2.300   0.6281   0.00437   0.00086  -0.0868  0.5070  0.6262  -0.8376   0.0000   0.3844
   2.400   0.6392   0.00443   0.00088  -0.0869  0.4984  0.6274  -0.8436   0.0000   0.3820
   2.500   0.6499   0.00452   0.00092  -0.0869  0.4868  0.6284  -0.8495   0.0000   0.3796
   2.600   0.6602   0.00463   0.00097  -0.0868  0.4701  0.6299  -0.8553   0.0000   0.3773
   2.700   0.6698   0.00479   0.00104  -0.0866  0.4475  0.6314  -0.8919   0.0000   0.3750
   2.800   0.6786   0.00501   0.00114  -0.0863  0.4164  0.6329  -0.9295   0.0000   0.3728
   2.900   0.6867   0.00529   0.00127  -0.0858  0.3786  0.6344  -0.9664   0.0000   0.3705
   3.000   0.6952   0.00553   0.00138  -0.0854  0.3460  0.6358  -1.0062   0.0000   0.3684
   3.100   0.7043   0.00573   0.00148  -0.0852  0.3203  0.6371  -1.0523   0.0000   0.3663
   3.200   0.7139   0.00589   0.00156  -0.0850  0.2987  0.6382  -1.1003   0.0000   0.3643
   3.400   0.7329   0.00622   0.00173  -0.0846  0.2573  0.6413  -1.1979   0.0000   0.3605
   3.500   0.7423   0.00640   0.00182  -0.0843  0.2358  0.6428  -1.2469   0.0000   0.3586
   3.700   0.7608   0.00675   0.00201  -0.0839  0.1930  0.6459  -1.3464   0.0000   0.3550
   3.800   0.7701   0.00693   0.00211  -0.0836  0.1729  0.6473  -1.3968   0.0000   0.3533
   3.900   0.7797   0.00709   0.00219  -0.0834  0.1558  0.6485  -1.4484   0.0000   0.3516
   4.100   0.7989   0.00738   0.00236  -0.0830  0.1256  0.6518  -1.5536   0.0000   0.3483
   4.200   0.8086   0.00751   0.00245  -0.0829  0.1121  0.6535  -1.6104   0.0000   0.3468
   4.300   0.8182   0.00766   0.00254  -0.0827  0.0989  0.6551  -1.6673   0.0000   0.3452
   4.400   0.8281   0.00778   0.00262  -0.0825  0.0879  0.6566  -1.7255   0.0000   0.3437
   4.500   0.8378   0.00791   0.00270  -0.0824  0.0777  0.6580  -1.7841   0.0000   0.3423
   4.700   0.8576   0.00815   0.00286  -0.0821  0.0608  0.6613  -1.9040   0.0000   0.3395
   4.800   0.8675   0.00826   0.00295  -0.0819  0.0530  0.6631  -1.9648   0.0000   0.3381
   4.900   0.8773   0.00838   0.00303  -0.0818  0.0453  0.6648  -2.0257   0.0000   0.3368
   5.000   0.8870   0.00851   0.00312  -0.0816  0.0386  0.6664  -2.0872   0.0000   0.3354
   5.100   0.8970   0.00861   0.00320  -0.0815  0.0339  0.6679  -2.1502   0.0000   0.3342
   5.200   0.9072   0.00870   0.00327  -0.0814  0.0310  0.6693  -2.2146   0.0000   0.3329
   5.300   0.9176   0.00877   0.00334  -0.0813  0.0289  0.6712  -2.2801   0.0000   0.3318
   5.400   0.9279   0.00885   0.00341  -0.0813  0.0271  0.6730  -2.3460   0.0000   0.3306
   5.500   0.9383   0.00892   0.00348  -0.0812  0.0259  0.6748  -2.4130   0.0000   0.3294
   5.600   0.9487   0.00899   0.00354  -0.0811  0.0248  0.6766  -2.4806   0.0000   0.3283
   5.700   0.9589   0.00907   0.00361  -0.0811  0.0236  0.6781  -2.5483   0.0000   0.3272
   5.900   0.9797   0.00920   0.00374  -0.0810  0.0221  0.6815  -2.6868   0.0000   0.3251
   6.000   0.9899   0.00928   0.00381  -0.0809  0.0212  0.6834  -2.7563   0.0000   0.3240
   6.100   1.0001   0.00935   0.00389  -0.0808  0.0204  0.6853  -2.8264   0.0000   0.3230
   6.200   1.0104   0.00942   0.00395  -0.0807  0.0198  0.6870  -2.8976   0.0000   0.3220
   6.300   1.0206   0.00950   0.00402  -0.0807  0.0191  0.6886  -2.9689   0.0000   0.3210
   6.500   1.0408   0.00965   0.00417  -0.0804  0.0177  0.6922  -3.1124   0.0000   0.3190
   6.600   1.0509   0.00972   0.00424  -0.0804  0.0172  0.6941  -3.1854   0.0000   0.3181
   6.700   1.0609   0.00980   0.00432  -0.0802  0.0166  0.6961  -3.2584   0.0000   0.3171
   6.800   1.0707   0.00989   0.00440  -0.0801  0.0158  0.6978  -3.3312   0.0000   0.3162
   6.900   1.0807   0.00997   0.00448  -0.0800  0.0154  0.6994  -3.4052   0.0000   0.3153
   7.000   1.0907   0.01004   0.00455  -0.0798  0.0150  0.7013  -3.4798   0.0000   0.3144
   7.100   1.1005   0.01013   0.00464  -0.0797  0.0145  0.7033  -3.5544   0.0000   0.3134
   7.200   1.1101   0.01022   0.00472  -0.0795  0.0140  0.7053  -3.6289   0.0000   0.3125
   7.300   1.1198   0.01030   0.00481  -0.0794  0.0135  0.7073  -3.7060   0.0000   0.3116
   7.400   1.1296   0.01038   0.00489  -0.0792  0.0133  0.7090  -3.7862   0.0000   0.3108
   7.600   1.1488   0.01055   0.00506  -0.0789  0.0127  0.7129  -3.9469   0.0000   0.3090
   7.700   1.1583   0.01065   0.00516  -0.0786  0.0123  0.7151  -4.0273   0.0000   0.3082
   7.800   1.1675   0.01075   0.00526  -0.0784  0.0119  0.7172  -4.1071   0.0000   0.3073
   7.900   1.1769   0.01084   0.00535  -0.0782  0.0117  0.7191  -4.1878   0.0000   0.3064
   8.100   1.1957   0.01101   0.00553  -0.0778  0.0114  0.7232  -4.3534   0.0000   0.3048
   8.200   1.2049   0.01110   0.00562  -0.0775  0.0112  0.7255  -4.4363   0.0000   0.3039
   8.300   1.2141   0.01119   0.00572  -0.0773  0.0110  0.7277  -4.5194   0.0000   0.3031
   8.400   1.2230   0.01129   0.00582  -0.0770  0.0108  0.7297  -4.6024   0.0000   0.3022
   8.500   1.2319   0.01140   0.00592  -0.0767  0.0106  0.7317  -4.6850   0.0000   0.3014
   8.600   1.2405   0.01151   0.00604  -0.0763  0.0104  0.7341  -4.7670   0.0000   0.3006
   8.700   1.2489   0.01162   0.00616  -0.0759  0.0101  0.7366  -4.8475   0.0000   0.2997
   8.800   1.2575   0.01173   0.00627  -0.0756  0.0100  0.7389  -4.9299   0.0000   0.2989
   8.900   1.2656   0.01182   0.00636  -0.0751  0.0099  0.7410  -5.0123   0.0000   0.2980
   9.000   1.2732   0.01190   0.00645  -0.0745  0.0099  0.7436  -5.0927   0.0000   0.2970
   9.100   1.2805   0.01199   0.00655  -0.0739  0.0098  0.7463  -5.1725   0.0000   0.2961
   9.200   1.2878   0.01209   0.00666  -0.0733  0.0097  0.7489  -5.2526   0.0000   0.2951
   9.300   1.2950   0.01220   0.00677  -0.0727  0.0097  0.7512  -5.3328   0.0000   0.2942
   9.400   1.3022   0.01231   0.00689  -0.0720  0.0096  0.7540  -5.4134   0.0000   0.2932
   9.500   1.3093   0.01242   0.00701  -0.0714  0.0095  0.7568  -5.4942   0.0000   0.2923
   9.600   1.3164   0.01254   0.00714  -0.0708  0.0094  0.7595  -5.5752   0.0000   0.2914
   9.800   1.3304   0.01278   0.00740  -0.0696  0.0092  0.7649  -5.7378   0.0000   0.2896
   9.900   1.3373   0.01292   0.00754  -0.0689  0.0092  0.7680  -5.8193   0.0000   0.2887
  10.000   1.3441   0.01305   0.00768  -0.0683  0.0091  0.7708  -5.9005   0.0000   0.2878
  10.100   1.3509   0.01320   0.00784  -0.0677  0.0090  0.7737  -5.9816   0.0000   0.2870
  10.200   1.3575   0.01335   0.00800  -0.0670  0.0089  0.7770  -6.0618   0.0000   0.2861
  10.300   1.3639   0.01350   0.00817  -0.0663  0.0088  0.7802  -6.1413   0.0000   0.2852
  10.400   1.3702   0.01367   0.00835  -0.0657  0.0087  0.7831  -6.2196   0.0000   0.2843
  10.500   1.3764   0.01385   0.00854  -0.0650  0.0086  0.7865  -6.2971   0.0000   0.2835
  10.600   1.3829   0.01402   0.00872  -0.0643  0.0085  0.7898  -6.3776   0.0000   0.2826
  10.700   1.3897   0.01417   0.00888  -0.0638  0.0085  0.7928  -6.4626   0.0000   0.2818
  10.800   1.3966   0.01433   0.00905  -0.0632  0.0085  0.7962  -6.5482   0.0000   0.2811
  10.900   1.4033   0.01449   0.00922  -0.0627  0.0084  0.7997  -6.6369   0.0000   0.2803
  11.100   1.4167   0.01482   0.00958  -0.0616  0.0084  0.8064  -6.8151   0.0000   0.2788
  11.200   1.4233   0.01500   0.00977  -0.0610  0.0083  0.8101  -6.9044   0.0000   0.2780
  11.300   1.4299   0.01518   0.00996  -0.0605  0.0083  0.8134  -6.9939   0.0000   0.2773
  11.400   1.4364   0.01536   0.01016  -0.0599  0.0083  0.8172  -7.0837   0.0000   0.2765
  11.500   1.4429   0.01555   0.01036  -0.0594  0.0082  0.8209  -7.1741   0.0000   0.2758
  11.600   1.4494   0.01574   0.01057  -0.0588  0.0082  0.8244  -7.2643   0.0000   0.2751
  11.700   1.4558   0.01594   0.01078  -0.0583  0.0081  0.8285  -7.3551   0.0000   0.2743
  11.800   1.4621   0.01614   0.01099  -0.0577  0.0081  0.8321  -7.4461   0.0000   0.2736
  11.900   1.4684   0.01635   0.01122  -0.0572  0.0081  0.8361  -7.5369   0.0000   0.2729
  12.000   1.4747   0.01656   0.01144  -0.0567  0.0080  0.8402  -7.6282   0.0000   0.2722
  12.100   1.4808   0.01678   0.01168  -0.0561  0.0080  0.8442  -7.7189   0.0000   0.2715
  12.200   1.4869   0.01700   0.01192  -0.0556  0.0079  0.8488  -7.8100   0.0000   0.2708
  12.300   1.4930   0.01724   0.01216  -0.0550  0.0079  0.8530  -7.9013   0.0000   0.2701
  12.400   1.4989   0.01747   0.01242  -0.0545  0.0079  0.8581  -7.9920   0.0000   0.2694
  12.500   1.5048   0.01771   0.01268  -0.0539  0.0078  0.8630  -8.0834   0.0000   0.2688
  12.600   1.5106   0.01796   0.01295  -0.0534  0.0078  0.8688  -8.1741   0.0000   0.2681
  12.700   1.5163   0.01822   0.01322  -0.0528  0.0077  0.8747  -8.2649   0.0000   0.2674
  12.800   1.5220   0.01847   0.01350  -0.0523  0.0077  0.8814  -8.3558   0.0000   0.2667
  12.900   1.5274   0.01874   0.01379  -0.0517  0.0077  0.8891  -8.4456   0.0000   0.2660
  13.000   1.5328   0.01901   0.01409  -0.0511  0.0076  0.8975  -8.5354   0.0000   0.2654
  13.100   1.5380   0.01929   0.01440  -0.0505  0.0076  0.9068  -8.6239   0.0000   0.2647
  13.200   1.5429   0.01958   0.01471  -0.0499  0.0075  0.9163  -8.7115   0.0000   0.2640
  13.300   1.5477   0.01987   0.01504  -0.0492  0.0075  0.9261  -8.7983   0.0000   0.2632
  13.400   1.5520   0.02017   0.01537  -0.0485  0.0074  0.9376  -8.8821   0.0000   0.2625
  13.500   1.5565   0.02041   0.01570  -0.0478  0.0074  0.9713  -8.9689   0.0000   0.2618
  13.600   1.5610   0.02073   0.01606  -0.0472  0.0073  1.0000  -9.0580   0.0000   0.2611
  13.700   1.5659   0.02109   0.01644  -0.0466  0.0073  1.0000  -9.1487   0.0000   0.2605
  13.800   1.5705   0.02148   0.01683  -0.0461  0.0072  1.0000  -9.2381   0.0000   0.2599
  13.900   1.5749   0.02189   0.01725  -0.0455  0.0072  1.0000  -9.3257   0.0000   0.2592
  14.000   1.5790   0.02231   0.01770  -0.0450  0.0071  1.0000  -9.4116   0.0000   0.2586
  14.100   1.5843   0.02266   0.01806  -0.0445  0.0071  1.0000  -9.5082   0.0000   0.2580
  14.200   1.5899   0.02299   0.01840  -0.0441  0.0071  1.0000  -9.6078   0.0000   0.2575
  14.300   1.5953   0.02334   0.01875  -0.0437  0.0071  1.0000  -9.7070   0.0000   0.2569
  14.400   1.6007   0.02369   0.01911  -0.0433  0.0071  1.0000  -9.8057   0.0000   0.2564
  14.500   1.6061   0.02405   0.01947  -0.0429  0.0071  1.0000  -9.9050   0.0000   0.2558
  14.600   1.6112   0.02442   0.01986  -0.0425  0.0071  1.0000  -10.0030   0.0000   0.2553
  14.700   1.6162   0.02480   0.02025  -0.0421  0.0070  1.0000  -10.1005   0.0000   0.2548
  14.800   1.6213   0.02518   0.02064  -0.0417  0.0070  1.0000  -10.1987   0.0000   0.2542
  14.900   1.6262   0.02559   0.02105  -0.0413  0.0070  1.0000  -10.2957   0.0000   0.2537
  15.000   1.6311   0.02599   0.02147  -0.0409  0.0070  1.0000  -10.3933   0.0000   0.2532
  15.100   1.6360   0.02640   0.02189  -0.0405  0.0070  1.0000  -10.4911   0.0000   0.2527
  15.200   1.6407   0.02682   0.02232  -0.0401  0.0070  1.0000  -10.5878   0.0000   0.2521
  15.300   1.6454   0.02725   0.02276  -0.0397  0.0070  1.0000  -10.6855   0.0000   0.2516
  15.400   1.6500   0.02768   0.02321  -0.0393  0.0069  1.0000  -10.7824   0.0000   0.2511
  15.500   1.6545   0.02813   0.02367  -0.0390  0.0069  1.0000  -10.8821   0.0000   0.2506
  15.600   1.6591   0.02858   0.02412  -0.0386  0.0069  1.0000  -10.9832   0.0000   0.2501
  15.700   1.6635   0.02904   0.02460  -0.0382  0.0069  1.0000  -11.0832   0.0000   0.2496
  15.800   1.6680   0.02951   0.02508  -0.0379  0.0069  1.0000  -11.1838   0.0000   0.2491
  15.900   1.6725   0.02998   0.02556  -0.0375  0.0068  1.0000  -11.2852   0.0000   0.2487
  16.000   1.6767   0.03047   0.02606  -0.0372  0.0068  1.0000  -11.3853   0.0000   0.2482
  16.100   1.6811   0.03096   0.02656  -0.0369  0.0068  1.0000  -11.4865   0.0000   0.2477
  16.200   1.6853   0.03145   0.02707  -0.0365  0.0068  1.0000  -11.5873   0.0000   0.2472
  16.300   1.6894   0.03197   0.02760  -0.0362  0.0068  1.0000  -11.6870   0.0000   0.2468
  16.400   1.6936   0.03248   0.02812  -0.0359  0.0067  1.0000  -11.7882   0.0000   0.2463
  16.500   1.6976   0.03302   0.02867  -0.0356  0.0067  1.0000  -11.8878   0.0000   0.2459
  16.600   1.7015   0.03357   0.02923  -0.0353  0.0067  1.0000  -11.9871   0.0000   0.2454
  16.700   1.7055   0.03411   0.02979  -0.0350  0.0067  1.0000  -12.0874   0.0000   0.2450
  16.800   1.7092   0.03469   0.03038  -0.0347  0.0066  1.0000  -12.1856   0.0000   0.2445
  16.900   1.7130   0.03526   0.03096  -0.0344  0.0066  1.0000  -12.2845   0.0000   0.2441
  17.000   1.7167   0.03584   0.03155  -0.0342  0.0066  1.0000  -12.3838   0.0000   0.2436
  17.100   1.7202   0.03645   0.03218  -0.0339  0.0066  1.0000  -12.4811   0.0000   0.2432
  17.200   1.7239   0.03704   0.03279  -0.0336  0.0066  1.0000  -12.5825   0.0000   0.2428
  17.300   1.7274   0.03766   0.03342  -0.0334  0.0065  1.0000  -12.6839   0.0000   0.2424
  17.400   1.7307   0.03830   0.03407  -0.0331  0.0065  1.0000  -12.7846   0.0000   0.2420
  17.500   1.7343   0.03892   0.03470  -0.0329  0.0065  1.0000  -12.8872   0.0000   0.2416
  17.600   1.7375   0.03958   0.03537  -0.0327  0.0065  1.0000  -12.9873   0.0000   0.2412
  17.700   1.7408   0.04024   0.03605  -0.0325  0.0065  1.0000  -13.0876   0.0000   0.2408
  17.800   1.7440   0.04090   0.03673  -0.0323  0.0064  1.0000  -13.1885   0.0000   0.2404
  17.900   1.7469   0.04161   0.03745  -0.0321  0.0064  1.0000  -13.2865   0.0000   0.2400
  18.000   1.7499   0.04231   0.03816  -0.0319  0.0064  1.0000  -13.3858   0.0000   0.2396
  18.100   1.7527   0.04303   0.03890  -0.0317  0.0063  1.0000  -13.4838   0.0000   0.2392
  18.200   1.7553   0.04379   0.03968  -0.0315  0.0063  1.0000  -13.5796   0.0000   0.2389
  18.300   1.7580   0.04454   0.04044  -0.0314  0.0063  1.0000  -13.6769   0.0000   0.2385
  18.400   1.7603   0.04534   0.04126  -0.0312  0.0063  1.0000  -13.7700   0.0000   0.2381
  18.500   1.7625   0.04615   0.04208  -0.0311  0.0062  1.0000  -13.8634   0.0000   0.2378
  18.600   1.7646   0.04698   0.04293  -0.0309  0.0062  1.0000  -13.9553   0.0000   0.2374
  18.700   1.7663   0.04785   0.04382  -0.0308  0.0062  1.0000  -14.0438   0.0000   0.2371
  18.800   1.7682   0.04872   0.04471  -0.0307  0.0062  1.0000  -14.1337   0.0000   0.2367
  18.900   1.7694   0.04966   0.04567  -0.0305  0.0061  1.0000  -14.2184   0.0000   0.2364
  19.000   1.7708   0.05060   0.04663  -0.0305  0.0061  1.0000  -14.3051   0.0000   0.2361
  19.100   1.7717   0.05160   0.04765  -0.0304  0.0061  1.0000  -14.3893   0.0000   0.2358
  19.200   1.7724   0.05263   0.04871  -0.0303  0.0060  1.0000  -14.4716   0.0000   0.2355
  19.300   1.7728   0.05370   0.04981  -0.0302  0.0060  1.0000  -14.5509   0.0000   0.2352
  19.400   1.7727   0.05484   0.05097  -0.0302  0.0060  1.0000  -14.6253   0.0000   0.2349
  19.500   1.7723   0.05602   0.05218  -0.0302  0.0059  1.0000  -14.6968   0.0000   0.2346
  19.600   1.7713   0.05729   0.05348  -0.0302  0.0059  1.0000  -14.7620   0.0000   0.2343
  19.700   1.7725   0.05831   0.05452  -0.0302  0.0059  1.0000  -14.8501   0.0000   0.2341
  19.800   1.7742   0.05928   0.05552  -0.0302  0.0059  1.0000  -14.9436   0.0000   0.2338
  19.900   1.7762   0.06021   0.05647  -0.0303  0.0059  1.0000  -15.0411   0.0000   0.2336
  20.000   1.7778   0.06122   0.05749  -0.0304  0.0059  1.0000  -15.1336   0.0000   0.2333
  20.100   1.7793   0.06222   0.05851  -0.0305  0.0059  1.0000  -15.2267   0.0000   0.2331
  20.200   1.7810   0.06322   0.05953  -0.0306  0.0058  1.0000  -15.3202   0.0000   0.2329
  20.300   1.7820   0.06430   0.06063  -0.0307  0.0058  1.0000  -15.4084   0.0000   0.2327
  20.400   1.7835   0.06533   0.06168  -0.0308  0.0058  1.0000  -15.5004   0.0000   0.2324
  20.500   1.7843   0.06646   0.06283  -0.0310  0.0058  1.0000  -15.5865   0.0000   0.2322
  20.600   1.7852   0.06757   0.06396  -0.0312  0.0058  1.0000  -15.6736   0.0000   0.2320
  20.700   1.7861   0.06872   0.06513  -0.0314  0.0058  1.0000  -15.7594   0.0000   0.2319
  20.800   1.7865   0.06992   0.06636  -0.0316  0.0058  1.0000  -15.8411   0.0000   0.2317
  20.900   1.7872   0.07109   0.06755  -0.0318  0.0058  1.0000  -15.9258   0.0000   0.2315
  21.000   1.7871   0.07237   0.06885  -0.0320  0.0058  1.0000  -16.0032   0.0000   0.2314
  21.100   1.7876   0.07358   0.07008  -0.0323  0.0058  1.0000  -16.0855   0.0000   0.2312
  21.200   1.7873   0.07491   0.07143  -0.0326  0.0058  1.0000  -16.1595   0.0000   0.2311
  21.300   1.7874   0.07618   0.07273  -0.0329  0.0058  1.0000  -16.2388   0.0000   0.2310
  21.400   1.7869   0.07756   0.07413  -0.0332  0.0058  1.0000  -16.3106   0.0000   0.2309
  21.500   1.7867   0.07889   0.07549  -0.0335  0.0057  1.0000  -16.3861   0.0000   0.2308
  21.600   1.7860   0.08032   0.07694  -0.0339  0.0057  1.0000  -16.4572   0.0000   0.2307
  21.700   1.7856   0.08171   0.07836  -0.0343  0.0057  1.0000  -16.5320   0.0000   0.2306
  21.800   1.7846   0.08319   0.07986  -0.0347  0.0057  1.0000  -16.6016   0.0000   0.2306
  21.900   1.7839   0.08463   0.08133  -0.0352  0.0057  1.0000  -16.6730   0.0000   0.2305
  22.000   1.7826   0.08617   0.08289  -0.0357  0.0057  1.0000  -16.7384   0.0000   0.2305
  22.100   1.7817   0.08766   0.08441  -0.0361  0.0057  1.0000  -16.8072   0.0000   0.2305
  22.200   1.7801   0.08927   0.08605  -0.0367  0.0057  1.0000  -16.8686   0.0000   0.2305
  22.300   1.7790   0.09081   0.08761  -0.0372  0.0057  1.0000  -16.9353   0.0000   0.2305
  22.400   1.7770   0.09249   0.08932  -0.0378  0.0057  1.0000  -16.9922   0.0000   0.2306
  22.500   1.7757   0.09408   0.09093  -0.0384  0.0056  1.0000  -17.0554   0.0000   0.2306
  22.600   1.7736   0.09581   0.09269  -0.0390  0.0056  1.0000  -17.1092   0.0000   0.2307
  22.700   1.7717   0.09750   0.09441  -0.0397  0.0056  1.0000  -17.1659   0.0000   0.2308
  22.800   1.7695   0.09923   0.09617  -0.0404  0.0056  1.0000  -17.2183   0.0000   0.2309
  22.900   1.7670   0.10105   0.09801  -0.0412  0.0056  1.0000  -17.2664   0.0000   0.2310
  23.000   1.7649   0.10279   0.09978  -0.0419  0.0056  1.0000  -17.3190   0.0000   0.2312
  23.100   1.7620   0.10468   0.10170  -0.0427  0.0056  1.0000  -17.3611   0.0000   0.2314
  23.200   1.7594   0.10653   0.10358  -0.0436  0.0056  1.0000  -17.4061   0.0000   0.2315
  23.300   1.7569   0.10838   0.10546  -0.0444  0.0055  1.0000  -17.4506   0.0000   0.2317
  23.400   1.7535   0.11037   0.10748  -0.0454  0.0055  1.0000  -17.4855   0.0000   0.2320
  23.500   1.7506   0.11230   0.10944  -0.0463  0.0055  1.0000  -17.5237   0.0000   0.2323
  23.600   1.7474   0.11425   0.11142  -0.0473  0.0055  1.0000  -17.5593   0.0000   0.2325
  23.700   1.7436   0.11633   0.11354  -0.0483  0.0055  1.0000  -17.5851   0.0000   0.2329
  23.800   1.7401   0.11838   0.11561  -0.0494  0.0055  1.0000  -17.6136   0.0000   0.2332
  23.900   1.7367   0.12041   0.11767  -0.0505  0.0055  1.0000  -17.6427   0.0000   0.2336
  24.000   1.7326   0.12256   0.11986  -0.0517  0.0055  1.0000  -17.6619   0.0000   0.2340
  24.100   1.7284   0.12474   0.12207  -0.0529  0.0055  1.0000  -17.6788   0.0000   0.2344
  24.200   1.7245   0.12688   0.12424  -0.0542  0.0054  1.0000  -17.6975   0.0000   0.2349
  24.300   1.7205   0.12904   0.12643  -0.0554  0.0054  1.0000  -17.7133   0.0000   0.2354
  24.400   1.7156   0.13134   0.12877  -0.0568  0.0054  1.0000  -17.7175   0.0000   0.2359
  24.500   1.7107   0.13367   0.13113  -0.0582  0.0054  1.0000  -17.7188   0.0000   0.2365
  24.600   1.7060   0.13598   0.13347  -0.0597  0.0054  1.0000  -17.7208   0.0000   0.2371
  24.700   1.7013   0.13826   0.13579  -0.0612  0.0054  1.0000  -17.7223   0.0000   0.2377
  24.800   1.6961   0.14065   0.13822  -0.0627  0.0054  1.0000  -17.7149   0.0000   0.2384
  24.900   1.6905   0.14314   0.14074  -0.0644  0.0054  1.0000  -17.6993   0.0000   0.2392
  25.000   1.6848   0.14564   0.14328  -0.0661  0.0054  1.0000  -17.6813   0.0000   0.2399


