xflr5 v6.47

 Calculated polar for: NACA 65(2)-415

 1 1 Reynolds number fixed          Mach number fixed         

 xtrf =   1.000 (top)        1.000 (bottom)
 Mach =   0.000     Re =     7.000 e 6     Ncrit =   9.000

  alpha     CL        CD       CDp       Cm    Top Xtr Bot Xtr   Cpmin    Chinge    XCp    
 ------- -------- --------- --------- -------- ------- ------- -------- --------- ---------
 -24.800  -0.8133   0.24405   0.24329   0.0435  1.0000  0.0038  -7.0149   0.0000   0.2622
 -24.700  -0.8107   0.24282   0.24206   0.0424  1.0000  0.0039  -7.0117   0.0000   0.2613
 -24.600  -0.8082   0.24154   0.24078   0.0414  1.0000  0.0039  -7.0105   0.0000   0.2603
 -24.500  -0.8059   0.24020   0.23944   0.0403  1.0000  0.0040  -7.0172   0.0000   0.2593
 -24.400  -0.8037   0.23881   0.23805   0.0392  1.0000  0.0041  -7.0288   0.0000   0.2583
 -24.300  -0.8015   0.23740   0.23664   0.0381  1.0000  0.0041  -7.0417   0.0000   0.2572
 -24.200  -0.7995   0.23597   0.23521   0.0370  1.0000  0.0042  -7.0561   0.0000   0.2562
 -24.100  -0.7976   0.23446   0.23370   0.0358  1.0000  0.0042  -7.0794   0.0000   0.2550
 -24.000  -0.7960   0.23287   0.23210   0.0347  1.0000  0.0043  -7.1134   0.0000   0.2538
 -23.900  -0.7990   0.22958   0.22880   0.0327  1.0000  0.0044  -7.3475   0.0000   0.2512
 -23.800  -0.7982   0.22771   0.22692   0.0314  1.0000  0.0045  -7.4092   0.0000   0.2497
 -23.400  -1.2540   0.11744   0.11562  -0.0376  1.0000  0.0050  -18.2842   0.0000   0.1800
 -23.300  -1.2944   0.10900   0.10706  -0.0427  1.0000  0.0049  -18.9124   0.0000   0.1775
 -23.200  -1.3221   0.10293   0.10090  -0.0463  1.0000  0.0049  -19.3094   0.0000   0.1759
 -23.100  -1.3453   0.09764   0.09554  -0.0495  1.0000  0.0049  -19.6229   0.0000   0.1746
 -23.000  -1.3644   0.09315   0.09098  -0.0521  1.0000  0.0049  -19.8628   0.0000   0.1735
 -22.900  -1.3810   0.08910   0.08687  -0.0545  1.0000  0.0049  -20.0577   0.0000   0.1727
 -22.800  -1.3956   0.08541   0.08313  -0.0566  1.0000  0.0049  -20.2161   0.0000   0.1719
 -22.700  -1.4084   0.08208   0.07974  -0.0585  1.0000  0.0049  -20.3425   0.0000   0.1713
 -22.600  -1.4198   0.07898   0.07660  -0.0602  1.0000  0.0049  -20.4463   0.0000   0.1708
 -22.500  -1.4302   0.07607   0.07364  -0.0619  1.0000  0.0049  -20.5316   0.0000   0.1703
 -22.400  -1.4393   0.07340   0.07092  -0.0633  1.0000  0.0049  -20.5949   0.0000   0.1700
 -22.300  -1.4477   0.07088   0.06836  -0.0647  1.0000  0.0049  -20.6453   0.0000   0.1696
 -22.200  -1.4554   0.06850   0.06594  -0.0659  1.0000  0.0049  -20.6840   0.0000   0.1693
 -22.100  -1.4621   0.06627   0.06367  -0.0671  1.0000  0.0049  -20.7068   0.0000   0.1691
 -22.000  -1.4681   0.06418   0.06154  -0.0681  1.0000  0.0050  -20.7180   0.0000   0.1689
 -21.900  -1.4736   0.06219   0.05952  -0.0691  1.0000  0.0050  -20.7206   0.0000   0.1688
 -21.800  -1.4786   0.06030   0.05760  -0.0700  1.0000  0.0050  -20.7148   0.0000   0.1686
 -21.700  -1.4831   0.05851   0.05577  -0.0708  1.0000  0.0050  -20.7005   0.0000   0.1685
 -21.600  -1.4870   0.05679   0.05403  -0.0716  1.0000  0.0050  -20.6782   0.0000   0.1685
 -21.500  -1.4905   0.05516   0.05236  -0.0723  1.0000  0.0051  -20.6495   0.0000   0.1684
 -21.400  -1.4937   0.05360   0.05076  -0.0729  1.0000  0.0051  -20.6150   0.0000   0.1684
 -21.300  -1.4964   0.05211   0.04925  -0.0735  1.0000  0.0051  -20.5740   0.0000   0.1684
 -21.200  -1.4986   0.05070   0.04782  -0.0740  1.0000  0.0051  -20.5257   0.0000   0.1684
 -21.100  -1.5005   0.04935   0.04644  -0.0745  1.0000  0.0052  -20.4716   0.0000   0.1684
 -21.000  -1.5021   0.04805   0.04511  -0.0750  1.0000  0.0052  -20.4144   0.0000   0.1685
 -20.900  -1.5035   0.04678   0.04382  -0.0754  1.0000  0.0052  -20.3539   0.0000   0.1685
 -20.800  -1.5044   0.04560   0.04260  -0.0758  1.0000  0.0052  -20.2866   0.0000   0.1686
 -20.700  -1.5050   0.04446   0.04144  -0.0761  1.0000  0.0053  -20.2149   0.0000   0.1687
 -20.600  -1.5055   0.04334   0.04030  -0.0764  1.0000  0.0053  -20.1412   0.0000   0.1688
 -20.500  -1.5056   0.04228   0.03921  -0.0767  1.0000  0.0053  -20.0622   0.0000   0.1689
 -20.400  -1.5054   0.04127   0.03818  -0.0769  1.0000  0.0053  -19.9794   0.0000   0.1690
 -20.300  -1.5051   0.04027   0.03716  -0.0772  1.0000  0.0054  -19.8961   0.0000   0.1691
 -20.200  -1.5045   0.03933   0.03620  -0.0773  1.0000  0.0054  -19.8073   0.0000   0.1692
 -20.100  -1.5035   0.03842   0.03527  -0.0775  1.0000  0.0054  -19.7154   0.0000   0.1693
 -20.000  -1.5026   0.03753   0.03435  -0.0777  1.0000  0.0054  -19.6227   0.0000   0.1695
 -19.900  -1.5012   0.03669   0.03350  -0.0778  1.0000  0.0054  -19.5254   0.0000   0.1696
 -19.800  -1.4999   0.03587   0.03265  -0.0779  1.0000  0.0055  -19.4278   0.0000   0.1698
 -19.700  -1.4983   0.03508   0.03185  -0.0779  1.0000  0.0055  -19.3276   0.0000   0.1699
 -19.600  -1.4965   0.03433   0.03107  -0.0780  1.0000  0.0055  -19.2243   0.0000   0.1701
 -19.500  -1.4946   0.03359   0.03031  -0.0780  1.0000  0.0055  -19.1203   0.0000   0.1702
 -19.400  -1.4924   0.03289   0.02959  -0.0780  1.0000  0.0056  -19.0120   0.0000   0.1704
 -19.300  -1.4901   0.03220   0.02888  -0.0780  1.0000  0.0056  -18.9032   0.0000   0.1706
 -19.200  -1.4874   0.03154   0.02821  -0.0780  1.0000  0.0056  -18.7903   0.0000   0.1707
 -19.100  -1.4845   0.03090   0.02756  -0.0779  1.0000  0.0056  -18.6758   0.0000   0.1709
 -19.000  -1.4816   0.03028   0.02692  -0.0779  1.0000  0.0057  -18.5595   0.0000   0.1710
 -18.900  -1.4784   0.02969   0.02631  -0.0779  1.0000  0.0057  -18.4411   0.0000   0.1712
 -18.800  -1.4751   0.02911   0.02571  -0.0778  1.0000  0.0057  -18.3220   0.0000   0.1713
 -18.700  -1.4715   0.02855   0.02513  -0.0777  1.0000  0.0057  -18.1997   0.0000   0.1715
 -18.600  -1.4679   0.02800   0.02457  -0.0776  1.0000  0.0057  -18.0772   0.0000   0.1716
 -18.500  -1.4640   0.02748   0.02403  -0.0776  1.0000  0.0057  -17.9520   0.0000   0.1718
 -18.400  -1.4601   0.02696   0.02350  -0.0775  1.0000  0.0058  -17.8270   0.0000   0.1719
 -18.300  -1.4559   0.02647   0.02299  -0.0773  1.0000  0.0058  -17.6993   0.0000   0.1721
 -18.200  -1.4518   0.02597   0.02248  -0.0772  1.0000  0.0058  -17.5725   0.0000   0.1722
 -18.100  -1.4485   0.02541   0.02190  -0.0771  1.0000  0.0058  -17.4572   0.0000   0.1724
 -18.000  -1.4452   0.02486   0.02133  -0.0769  1.0000  0.0059  -17.3408   0.0000   0.1727
 -17.900  -1.4417   0.02434   0.02079  -0.0767  1.0000  0.0060  -17.2224   0.0000   0.1729
 -17.800  -1.4379   0.02383   0.02027  -0.0765  1.0000  0.0060  -17.1014   0.0000   0.1731
 -17.700  -1.4340   0.02334   0.01976  -0.0763  1.0000  0.0061  -16.9792   0.0000   0.1733
 -17.600  -1.4298   0.02287   0.01928  -0.0761  1.0000  0.0062  -16.8547   0.0000   0.1735
 -17.500  -1.4255   0.02242   0.01882  -0.0759  1.0000  0.0062  -16.7290   0.0000   0.1737
 -17.400  -1.4211   0.02199   0.01837  -0.0757  1.0000  0.0063  -16.6013   0.0000   0.1739
 -17.300  -1.4164   0.02157   0.01794  -0.0755  1.0000  0.0064  -16.4723   0.0000   0.1741
 -17.200  -1.4117   0.02117   0.01752  -0.0752  1.0000  0.0064  -16.3423   0.0000   0.1743
 -17.100  -1.4067   0.02078   0.01713  -0.0750  1.0000  0.0065  -16.2115   0.0000   0.1745
 -17.000  -1.4017   0.02041   0.01674  -0.0747  1.0000  0.0065  -16.0831   0.0000   0.1747
 -16.900  -1.3965   0.02005   0.01637  -0.0745  1.0000  0.0066  -15.9536   0.0000   0.1749
 -16.800  -1.3912   0.01970   0.01602  -0.0742  1.0000  0.0066  -15.8235   0.0000   0.1751
 -16.700  -1.3858   0.01937   0.01567  -0.0739  1.0000  0.0066  -15.6925   0.0000   0.1752
 -16.600  -1.3803   0.01905   0.01534  -0.0736  1.0000  0.0067  -15.5610   0.0000   0.1754
 -16.500  -1.3748   0.01874   0.01502  -0.0733  1.0000  0.0067  -15.4291   0.0000   0.1756
 -16.300  -1.3693   0.01815   0.01441  -0.0715  0.9918  0.0068  -15.2121   0.0000   0.1772
 -16.200  -1.3550   0.01784   0.01409  -0.0728  0.9869  0.0069  -15.0098   0.0000   0.1758
 -16.100  -1.3390   0.01754   0.01378  -0.0745  0.9835  0.0069  -14.7941   0.0000   0.1740
 -16.000  -1.3230   0.01725   0.01347  -0.0762  0.9812  0.0069  -14.5798   0.0000   0.1723
 -15.900  -1.3057   0.01696   0.01318  -0.0781  0.9794  0.0070  -14.3566   0.0000   0.1702
 -15.800  -1.2881   0.01662   0.01282  -0.0801  0.9783  0.0071  -14.1350   0.0000   0.1680
 -15.700  -1.2704   0.01626   0.01246  -0.0822  0.9768  0.0073  -13.9142   0.0000   0.1656
 -15.600  -1.2532   0.01593   0.01212  -0.0842  0.9747  0.0074  -13.6986   0.0000   0.1633
 -15.500  -1.2350   0.01561   0.01179  -0.0863  0.9704  0.0076  -13.4764   0.0000   0.1607
 -15.400  -1.2190   0.01535   0.01149  -0.0880  0.9588  0.0077  -13.2713   0.0000   0.1586
 -15.300  -1.2142   0.01519   0.01126  -0.0872  0.9382  0.0078  -13.1518   0.0000   0.1591
 -15.200  -1.2103   0.01502   0.01104  -0.0863  0.9256  0.0078  -13.0408   0.0000   0.1598
 -15.100  -1.2060   0.01484   0.01082  -0.0855  0.9163  0.0079  -12.9260   0.0000   0.1604
 -15.000  -1.2013   0.01466   0.01061  -0.0847  0.9085  0.0080  -12.8090   0.0000   0.1610
 -14.900  -1.1962   0.01449   0.01041  -0.0840  0.9017  0.0080  -12.6890   0.0000   0.1614
 -14.800  -1.1910   0.01431   0.01021  -0.0833  0.8959  0.0081  -12.5688   0.0000   0.1619
 -14.700  -1.1859   0.01415   0.01002  -0.0826  0.8900  0.0081  -12.4497   0.0000   0.1624
 -14.600  -1.1806   0.01399   0.00984  -0.0819  0.8850  0.0082  -12.3292   0.0000   0.1628
 -14.400  -1.1709   0.01368   0.00948  -0.0802  0.8748  0.0083  -12.0962   0.0000   0.1640
 -14.300  -1.1668   0.01354   0.00932  -0.0792  0.8696  0.0083  -11.9862   0.0000   0.1648
 -14.200  -1.1629   0.01340   0.00916  -0.0782  0.8652  0.0084  -11.8773   0.0000   0.1656
 -14.100  -1.1579   0.01326   0.00900  -0.0773  0.8606  0.0085  -11.7624   0.0000   0.1663
 -14.000  -1.1509   0.01310   0.00883  -0.0768  0.8570  0.0086  -11.6333   0.0000   0.1664
 -13.900  -1.1435   0.01295   0.00867  -0.0764  0.8533  0.0088  -11.5011   0.0000   0.1665
 -13.800  -1.1360   0.01282   0.00852  -0.0759  0.8494  0.0089  -11.3685   0.0000   0.1666
 -13.700  -1.1281   0.01268   0.00837  -0.0756  0.8463  0.0090  -11.2329   0.0000   0.1666
 -13.600  -1.1200   0.01255   0.00823  -0.0753  0.8429  0.0092  -11.0967   0.0000   0.1666
 -13.500  -1.1118   0.01243   0.00810  -0.0749  0.8393  0.0093  -10.9605   0.0000   0.1665
 -13.400  -1.1032   0.01231   0.00796  -0.0747  0.8364  0.0094  -10.8225   0.0000   0.1664
 -13.300  -1.0946   0.01219   0.00784  -0.0744  0.8333  0.0095  -10.6843   0.0000   0.1662
 -13.200  -1.0859   0.01209   0.00772  -0.0742  0.8300  0.0096  -10.5465   0.0000   0.1660
 -13.100  -1.0769   0.01198   0.00760  -0.0739  0.8273  0.0096  -10.4078   0.0000   0.1658
 -13.000  -1.0678   0.01188   0.00749  -0.0737  0.8245  0.0097  -10.2688   0.0000   0.1656
 -12.900  -1.0587   0.01178   0.00737  -0.0735  0.8215  0.0097  -10.1304   0.0000   0.1653
 -12.800  -1.0496   0.01168   0.00726  -0.0734  0.8185  0.0098  -9.9924   0.0000   0.1650
 -12.700  -1.0406   0.01155   0.00713  -0.0731  0.8161  0.0099  -9.8576   0.0000   0.1647
 -12.600  -1.0316   0.01143   0.00699  -0.0729  0.8133  0.0101  -9.7278   0.0000   0.1644
 -12.500  -1.0225   0.01131   0.00687  -0.0727  0.8103  0.0103  -9.5979   0.0000   0.1641
 -12.400  -1.0132   0.01120   0.00675  -0.0726  0.8077  0.0104  -9.4671   0.0000   0.1638
 -12.300  -1.0037   0.01110   0.00664  -0.0724  0.8054  0.0105  -9.3355   0.0000   0.1634
 -12.200  -0.9941   0.01100   0.00653  -0.0723  0.8027  0.0107  -9.2042   0.0000   0.1629
 -12.100  -0.9845   0.01090   0.00643  -0.0722  0.7999  0.0108  -9.0735   0.0000   0.1625
 -12.000  -0.9748   0.01081   0.00633  -0.0721  0.7976  0.0109  -8.9426   0.0000   0.1620
 -11.900  -0.9649   0.01072   0.00624  -0.0720  0.7953  0.0110  -8.8116   0.0000   0.1614
 -11.800  -0.9550   0.01063   0.00614  -0.0719  0.7926  0.0111  -8.6813   0.0000   0.1609
 -11.700  -0.9451   0.01055   0.00605  -0.0718  0.7899  0.0112  -8.5518   0.0000   0.1603
 -11.600  -0.9351   0.01047   0.00596  -0.0717  0.7875  0.0112  -8.4223   0.0000   0.1597
 -11.500  -0.9250   0.01039   0.00587  -0.0717  0.7853  0.0113  -8.2929   0.0000   0.1590
 -11.400  -0.9149   0.01031   0.00578  -0.0716  0.7827  0.0113  -8.1642   0.0000   0.1583
 -11.300  -0.9047   0.01024   0.00570  -0.0716  0.7800  0.0114  -8.0362   0.0000   0.1576
 -11.200  -0.8945   0.01017   0.00562  -0.0715  0.7777  0.0114  -7.9083   0.0000   0.1568
 -11.100  -0.8846   0.01005   0.00550  -0.0715  0.7755  0.0116  -7.7856   0.0000   0.1561
 -11.000  -0.8747   0.00995   0.00539  -0.0714  0.7730  0.0118  -7.6628   0.0000   0.1554
 -10.900  -0.8646   0.00986   0.00529  -0.0713  0.7703  0.0120  -7.5395   0.0000   0.1546
 -10.800  -0.8544   0.00977   0.00520  -0.0713  0.7679  0.0121  -7.4159   0.0000   0.1538
 -10.700  -0.8440   0.00969   0.00512  -0.0712  0.7658  0.0122  -7.2921   0.0000   0.1529
 -10.600  -0.8337   0.00961   0.00503  -0.0712  0.7633  0.0123  -7.1690   0.0000   0.1520
 -10.500  -0.8233   0.00954   0.00495  -0.0712  0.7607  0.0125  -7.0468   0.0000   0.1510
 -10.400  -0.8129   0.00947   0.00487  -0.0712  0.7583  0.0126  -6.9251   0.0000   0.1500
 -10.300  -0.8023   0.00940   0.00480  -0.0712  0.7563  0.0126  -6.8060   0.0000   0.1490
 -10.200  -0.7918   0.00933   0.00472  -0.0712  0.7539  0.0127  -6.6898   0.0000   0.1479
 -10.100  -0.7812   0.00926   0.00465  -0.0712  0.7514  0.0128  -6.5745   0.0000   0.1467
  -9.900  -0.7600   0.00913   0.00451  -0.0712  0.7469  0.0130  -6.3457   0.0000   0.1443
  -9.800  -0.7492   0.00907   0.00444  -0.0713  0.7447  0.0130  -6.2319   0.0000   0.1430
  -9.700  -0.7385   0.00901   0.00437  -0.0713  0.7424  0.0131  -6.1189   0.0000   0.1417
  -9.600  -0.7278   0.00895   0.00431  -0.0713  0.7399  0.0131  -6.0066   0.0000   0.1403
  -9.500  -0.7170   0.00890   0.00425  -0.0714  0.7379  0.0132  -5.8945   0.0000   0.1388
  -9.400  -0.7061   0.00884   0.00418  -0.0714  0.7360  0.0132  -5.7834   0.0000   0.1373
  -9.300  -0.6957   0.00873   0.00407  -0.0714  0.7339  0.0134  -5.6777   0.0000   0.1359
  -9.200  -0.6852   0.00865   0.00398  -0.0714  0.7316  0.0136  -5.5713   0.0000   0.1344
  -9.100  -0.6745   0.00857   0.00389  -0.0714  0.7293  0.0138  -5.4649   0.0000   0.1328
  -9.000  -0.6637   0.00850   0.00382  -0.0714  0.7275  0.0139  -5.3581   0.0000   0.1311
  -8.900  -0.6529   0.00843   0.00375  -0.0715  0.7257  0.0140  -5.2535   0.0000   0.1293
  -8.800  -0.6420   0.00837   0.00368  -0.0715  0.7236  0.0142  -5.1520   0.0000   0.1274
  -8.700  -0.6311   0.00831   0.00362  -0.0716  0.7214  0.0143  -5.0511   0.0000   0.1255
  -8.600  -0.6202   0.00825   0.00355  -0.0716  0.7192  0.0144  -4.9509   0.0000   0.1234
  -8.500  -0.6092   0.00819   0.00350  -0.0717  0.7177  0.0145  -4.8508   0.0000   0.1213
  -8.400  -0.5982   0.00814   0.00344  -0.0718  0.7160  0.0146  -4.7515   0.0000   0.1190
  -8.300  -0.5871   0.00808   0.00338  -0.0719  0.7141  0.0147  -4.6532   0.0000   0.1167
  -8.200  -0.5761   0.00803   0.00332  -0.0719  0.7121  0.0148  -4.5559   0.0000   0.1143
  -8.100  -0.5651   0.00798   0.00326  -0.0720  0.7100  0.0149  -4.4594   0.0000   0.1118
  -8.000  -0.5540   0.00792   0.00320  -0.0721  0.7084  0.0149  -4.3634   0.0000   0.1091
  -7.900  -0.5429   0.00787   0.00315  -0.0722  0.7068  0.0150  -4.2705   0.0000   0.1063
  -7.800  -0.5317   0.00782   0.00310  -0.0722  0.7051  0.0151  -4.1795   0.0000   0.1034
  -7.700  -0.5206   0.00777   0.00305  -0.0723  0.7032  0.0151  -4.0892   0.0000   0.1003
  -7.600  -0.5094   0.00773   0.00300  -0.0724  0.7013  0.0152  -3.9997   0.0000   0.0971
  -7.400  -0.4873   0.00759   0.00285  -0.0726  0.6980  0.0155  -3.8271   0.0000   0.0904
  -7.300  -0.4762   0.00753   0.00278  -0.0726  0.6965  0.0157  -3.7414   0.0000   0.0868
  -7.200  -0.4651   0.00747   0.00271  -0.0727  0.6948  0.0159  -3.6582   0.0000   0.0829
  -7.100  -0.4539   0.00741   0.00266  -0.0728  0.6930  0.0161  -3.5766   0.0000   0.0789
  -7.000  -0.4427   0.00736   0.00261  -0.0729  0.6911  0.0163  -3.4955   0.0000   0.0746
  -6.900  -0.4315   0.00732   0.00256  -0.0730  0.6892  0.0164  -3.4150   0.0000   0.0701
  -6.800  -0.4202   0.00727   0.00251  -0.0731  0.6880  0.0165  -3.3348   0.0000   0.0652
  -6.700  -0.4089   0.00722   0.00246  -0.0732  0.6865  0.0167  -3.2554   0.0000   0.0601
  -6.600  -0.3976   0.00717   0.00241  -0.0733  0.6849  0.0168  -3.1787   0.0000   0.0547
  -6.500  -0.3863   0.00713   0.00236  -0.0734  0.6831  0.0169  -3.1040   0.0000   0.0490
  -6.400  -0.3750   0.00709   0.00232  -0.0735  0.6813  0.0170  -3.0300   0.0000   0.0429
  -6.300  -0.3637   0.00705   0.00228  -0.0737  0.6795  0.0171  -2.9567   0.0000   0.0365
  -6.200  -0.3523   0.00701   0.00223  -0.0738  0.6783  0.0172  -2.8837   0.0000   0.0295
  -6.100  -0.3408   0.00696   0.00219  -0.0739  0.6769  0.0173  -2.8126   0.0000   0.0220
  -6.000  -0.3294   0.00693   0.00215  -0.0740  0.6753  0.0173  -2.7442   0.0000   0.0140
  -5.900  -0.3181   0.00687   0.00209  -0.0741  0.6737  0.0176  -2.6782   0.0000   0.0056
  -5.800  -0.3068   0.00682   0.00204  -0.0742  0.6719  0.0179  -2.6127   0.0000  -0.0035
  -5.600  -0.2841   0.00673   0.00195  -0.0745  0.6688  0.0185  -2.4810   0.0000  -0.0240
  -5.500  -0.2726   0.00669   0.00191  -0.0746  0.6676  0.0187  -2.4156   0.0000  -0.0357
  -5.400  -0.2611   0.00665   0.00187  -0.0748  0.6661  0.0190  -2.3512   0.0000  -0.0484
  -5.300  -0.2497   0.00661   0.00183  -0.0749  0.6646  0.0192  -2.2902   0.0000  -0.0623
  -5.200  -0.2382   0.00658   0.00179  -0.0750  0.6629  0.0194  -2.2297   0.0000  -0.0775
  -5.100  -0.2268   0.00655   0.00176  -0.0751  0.6612  0.0195  -2.1697   0.0000  -0.0942
  -5.000  -0.2153   0.00652   0.00173  -0.0753  0.6596  0.0197  -2.1100   0.0000  -0.1128
  -4.900  -0.2038   0.00648   0.00169  -0.0754  0.6585  0.0199  -2.0514   0.0000  -0.1337
  -4.800  -0.1923   0.00643   0.00165  -0.0756  0.6571  0.0205  -1.9939   0.0000  -0.1570
  -4.700  -0.1808   0.00639   0.00161  -0.0757  0.6557  0.0210  -1.9361   0.0000  -0.1832
  -4.600  -0.1693   0.00636   0.00158  -0.0758  0.6542  0.0215  -1.8786   0.0000  -0.2130
  -4.500  -0.1578   0.00633   0.00155  -0.0760  0.6526  0.0219  -1.8215   0.0000  -0.2471
  -4.400  -0.1463   0.00630   0.00152  -0.0761  0.6509  0.0222  -1.7650   0.0000  -0.2867
  -4.300  -0.1347   0.00626   0.00148  -0.0763  0.6496  0.0229  -1.7094   0.0000  -0.3332
  -4.200  -0.1232   0.00622   0.00145  -0.0764  0.6485  0.0238  -1.6541   0.0000  -0.3886
  -4.100  -0.1116   0.00619   0.00142  -0.0766  0.6472  0.0246  -1.5990   0.0000  -0.4556
  -4.000  -0.1000   0.00616   0.00139  -0.0767  0.6458  0.0251  -1.5445   0.0000  -0.5382
  -3.900  -0.0884   0.00612   0.00136  -0.0769  0.6444  0.0262  -1.4912   0.0000  -0.6420
  -3.800  -0.0769   0.00609   0.00133  -0.0770  0.6429  0.0273  -1.4409   0.0000  -0.7765
  -3.700  -0.0654   0.00606   0.00131  -0.0771  0.6412  0.0282  -1.3910   0.0000  -0.9588
  -3.600  -0.0538   0.00603   0.00128  -0.0773  0.6399  0.0295  -1.3415   0.0000  -1.2207
  -3.500  -0.0422   0.00599   0.00125  -0.0774  0.6389  0.0310  -1.2924   0.0000  -1.6281
  -3.400  -0.0305   0.00596   0.00123  -0.0776  0.6378  0.0322  -1.2436   0.0000  -2.3467
  -3.300  -0.0190   0.00592   0.00120  -0.0778  0.6365  0.0348  -1.1956   0.0000  -3.9381
  -3.200  -0.0074   0.00589   0.00117  -0.0779  0.6351  0.0376  -1.1481   0.0000  -10.5235
  -3.100   0.0042   0.00585   0.00115  -0.0781  0.6337  0.0416  -1.1011   0.0000  19.3813
  -3.000   0.0156   0.00580   0.00112  -0.0782  0.6322  0.0481  -1.0549   0.0000   5.3431
  -2.800   0.0387   0.00568   0.00105  -0.0785  0.6297  0.0666  -0.9639   0.0000   2.3148
  -2.700   0.0502   0.00560   0.00102  -0.0787  0.6287  0.0786  -0.9191   0.0000   1.8426
  -2.600   0.0618   0.00554   0.00099  -0.0789  0.6275  0.0907  -0.8747   0.0000   1.5464
  -2.500   0.0733   0.00546   0.00096  -0.0790  0.6263  0.1069  -0.8310   0.0000   1.3446
  -2.400   0.0847   0.00537   0.00093  -0.0792  0.6250  0.1252  -0.7879   0.0000   1.1977
  -2.300   0.0962   0.00529   0.00090  -0.0794  0.6236  0.1437  -0.7451   0.0000   1.0859
  -2.200   0.1077   0.00521   0.00087  -0.0796  0.6222  0.1625  -0.7029   0.0000   0.9979
  -2.100   0.1191   0.00513   0.00084  -0.0797  0.6207  0.1827  -0.6627   0.0000   0.9269
  -2.000   0.1307   0.00504   0.00081  -0.0799  0.6199  0.2052  -0.6237   0.0000   0.8681
  -1.900   0.1423   0.00494   0.00078  -0.0801  0.6189  0.2289  -0.5888   0.0000   0.8189
  -1.800   0.1538   0.00485   0.00075  -0.0803  0.6178  0.2516  -0.5944   0.0000   0.7770
  -1.700   0.1654   0.00476   0.00073  -0.0806  0.6166  0.2752  -0.6000   0.0000   0.7411
  -1.600   0.1769   0.00465   0.00070  -0.0808  0.6154  0.3025  -0.6056   0.0000   0.7099
  -1.500   0.1884   0.00454   0.00067  -0.0810  0.6141  0.3324  -0.6111   0.0000   0.6827
  -1.400   0.1999   0.00444   0.00064  -0.0812  0.6127  0.3610  -0.6167   0.0000   0.6585
  -1.200   0.2229   0.00418   0.00058  -0.0816  0.6103  0.4309  -0.6281   0.0000   0.6179
  -1.100   0.2344   0.00401   0.00054  -0.0819  0.6094  0.4752  -0.6338   0.0000   0.6006
  -1.000   0.2460   0.00390   0.00052  -0.0821  0.6083  0.5078  -0.6395   0.0000   0.5847
  -0.900   0.2578   0.00385   0.00052  -0.0823  0.6070  0.5253  -0.6453   0.0000   0.5701
  -0.800   0.2695   0.00382   0.00052  -0.0825  0.6054  0.5364  -0.6512   0.0000   0.5566
  -0.700   0.2812   0.00381   0.00052  -0.0827  0.6036  0.5459  -0.6570   0.0000   0.5442
  -0.500   0.3047   0.00379   0.00052  -0.0830  0.6000  0.5579  -0.6687   0.0000   0.5223
  -0.400   0.3165   0.00378   0.00052  -0.0832  0.5982  0.5637  -0.6745   0.0000   0.5125
  -0.300   0.3282   0.00378   0.00053  -0.0834  0.5961  0.5681  -0.6805   0.0000   0.5034
  -0.200   0.3399   0.00378   0.00053  -0.0836  0.5937  0.5720  -0.6864   0.0000   0.4950
  -0.100   0.3516   0.00379   0.00054  -0.0837  0.5913  0.5756  -0.6924   0.0000   0.4871
   0.000   0.3635   0.00379   0.00054  -0.0839  0.5896  0.5783  -0.6984   0.0000   0.4797
   0.100   0.3752   0.00379   0.00054  -0.0841  0.5877  0.5815  -0.7044   0.0000   0.4728
   0.200   0.3870   0.00379   0.00055  -0.0843  0.5855  0.5844  -0.7103   0.0000   0.4663
   0.300   0.3986   0.00381   0.00056  -0.0844  0.5831  0.5869  -0.7163   0.0000   0.4601
   0.500   0.4222   0.00382   0.00057  -0.0848  0.5790  0.5924  -0.7283   0.0000   0.4489
   0.600   0.4339   0.00382   0.00058  -0.0849  0.5764  0.5952  -0.7344   0.0000   0.4437
   0.700   0.4455   0.00384   0.00059  -0.0851  0.5734  0.5975  -0.7404   0.0000   0.4388
   0.800   0.4572   0.00385   0.00059  -0.0852  0.5709  0.5997  -0.7465   0.0000   0.4342
   0.900   0.4689   0.00386   0.00060  -0.0854  0.5682  0.6022  -0.7526   0.0000   0.4298
   1.000   0.4805   0.00387   0.00061  -0.0856  0.5652  0.6041  -0.7587   0.0000   0.4255
   1.100   0.4921   0.00389   0.00062  -0.0857  0.5624  0.6057  -0.7647   0.0000   0.4215
   1.200   0.5039   0.00390   0.00063  -0.0859  0.5603  0.6070  -0.7708   0.0000   0.4177
   1.300   0.5156   0.00392   0.00064  -0.0860  0.5578  0.6080  -0.7770   0.0000   0.4140
   1.500   0.5388   0.00395   0.00066  -0.0863  0.5524  0.6106  -0.7894   0.0000   0.4072
   1.600   0.5505   0.00397   0.00067  -0.0865  0.5484  0.6120  -0.7956   0.0000   0.4040
   1.700   0.5618   0.00401   0.00069  -0.0866  0.5421  0.6133  -0.8016   0.0000   0.4009
   1.800   0.5730   0.00406   0.00071  -0.0866  0.5344  0.6146  -0.8076   0.0000   0.3979
   1.900   0.5842   0.00410   0.00074  -0.0867  0.5266  0.6158  -0.8136   0.0000   0.3950
   2.000   0.5952   0.00416   0.00076  -0.0868  0.5165  0.6170  -0.8195   0.0000   0.3922
   2.100   0.6060   0.00424   0.00079  -0.0868  0.5048  0.6179  -0.8254   0.0000   0.3895
   2.300   0.6277   0.00438   0.00086  -0.0868  0.4827  0.6206  -0.8374   0.0000   0.3845
   2.400   0.6383   0.00448   0.00091  -0.0868  0.4686  0.6220  -0.8432   0.0000   0.3820
   2.500   0.6481   0.00463   0.00097  -0.0866  0.4470  0.6234  -0.8489   0.0000   0.3796
   2.600   0.6573   0.00482   0.00106  -0.0863  0.4192  0.6248  -0.8633   0.0000   0.3772
   2.800   0.6746   0.00530   0.00128  -0.0856  0.3531  0.6273  -0.9214   0.0000   0.3726
   2.900   0.6834   0.00553   0.00138  -0.0853  0.3224  0.6283  -0.9592   0.0000   0.3704
   3.000   0.6928   0.00571   0.00147  -0.0851  0.2977  0.6296  -1.0007   0.0000   0.3683
   3.100   0.7023   0.00587   0.00155  -0.0849  0.2763  0.6312  -1.0473   0.0000   0.3663
   3.200   0.7121   0.00602   0.00162  -0.0847  0.2572  0.6328  -1.0959   0.0000   0.3643
   3.300   0.7219   0.00616   0.00170  -0.0846  0.2387  0.6343  -1.1450   0.0000   0.3624
   3.400   0.7316   0.00632   0.00178  -0.0844  0.2193  0.6357  -1.1942   0.0000   0.3605
   3.600   0.7505   0.00665   0.00195  -0.0840  0.1794  0.6381  -1.2936   0.0000   0.3568
   3.800   0.7698   0.00696   0.00212  -0.0836  0.1445  0.6412  -1.3955   0.0000   0.3533
   3.900   0.7797   0.00708   0.00220  -0.0835  0.1312  0.6428  -1.4483   0.0000   0.3517
   4.000   0.7895   0.00722   0.00228  -0.0833  0.1169  0.6444  -1.5009   0.0000   0.3500
   4.100   0.7994   0.00734   0.00236  -0.0832  0.1049  0.6459  -1.5555   0.0000   0.3484
   4.200   0.8092   0.00748   0.00244  -0.0830  0.0924  0.6473  -1.6122   0.0000   0.3469
   4.300   0.8192   0.00759   0.00251  -0.0829  0.0825  0.6485  -1.6705   0.0000   0.3454
   4.400   0.8293   0.00770   0.00259  -0.0828  0.0740  0.6501  -1.7296   0.0000   0.3439
   4.500   0.8394   0.00780   0.00266  -0.0827  0.0660  0.6519  -1.7893   0.0000   0.3425
   4.600   0.8494   0.00791   0.00274  -0.0826  0.0581  0.6536  -1.8494   0.0000   0.3411
   4.700   0.8592   0.00804   0.00282  -0.0824  0.0498  0.6552  -1.9094   0.0000   0.3397
   4.800   0.8692   0.00815   0.00290  -0.0823  0.0427  0.6567  -1.9705   0.0000   0.3383
   4.900   0.8793   0.00825   0.00298  -0.0821  0.0370  0.6581  -2.0325   0.0000   0.3370
   5.100   0.8997   0.00843   0.00312  -0.0820  0.0298  0.6614  -2.1596   0.0000   0.3344
   5.200   0.9102   0.00850   0.00318  -0.0819  0.0282  0.6633  -2.2251   0.0000   0.3333
   5.300   0.9206   0.00858   0.00325  -0.0819  0.0264  0.6650  -2.2909   0.0000   0.3321
   5.400   0.9312   0.00864   0.00331  -0.0819  0.0254  0.6666  -2.3580   0.0000   0.3309
   5.500   0.9416   0.00871   0.00337  -0.0818  0.0243  0.6681  -2.4252   0.0000   0.3298
   5.700   0.9625   0.00884   0.00350  -0.0817  0.0226  0.6714  -2.5620   0.0000   0.3276
   5.800   0.9729   0.00891   0.00356  -0.0817  0.0217  0.6733  -2.6312   0.0000   0.3265
   5.900   0.9832   0.00898   0.00363  -0.0816  0.0207  0.6751  -2.7005   0.0000   0.3255
   6.000   0.9937   0.00905   0.00369  -0.0816  0.0201  0.6768  -2.7710   0.0000   0.3244
   6.100   1.0040   0.00912   0.00375  -0.0815  0.0195  0.6783  -2.8420   0.0000   0.3234
   6.300   1.0244   0.00927   0.00390  -0.0813  0.0179  0.6818  -2.9844   0.0000   0.3214
   6.400   1.0348   0.00933   0.00396  -0.0813  0.0175  0.6837  -3.0571   0.0000   0.3204
   6.500   1.0450   0.00940   0.00403  -0.0812  0.0169  0.6856  -3.1300   0.0000   0.3195
   6.600   1.0550   0.00948   0.00411  -0.0811  0.0162  0.6873  -3.2028   0.0000   0.3185
   6.700   1.0651   0.00956   0.00418  -0.0810  0.0155  0.6888  -3.2761   0.0000   0.3176
   6.800   1.0752   0.00963   0.00425  -0.0809  0.0152  0.6905  -3.3505   0.0000   0.3166
   6.900   1.0853   0.00971   0.00432  -0.0808  0.0147  0.6926  -3.4251   0.0000   0.3157
   7.000   1.0951   0.00979   0.00441  -0.0807  0.0142  0.6945  -3.4997   0.0000   0.3148
   7.100   1.1050   0.00988   0.00449  -0.0805  0.0136  0.6964  -3.5741   0.0000   0.3139
   7.200   1.1150   0.00995   0.00456  -0.0804  0.0133  0.6982  -3.6503   0.0000   0.3130
   7.300   1.1249   0.01003   0.00464  -0.0803  0.0130  0.6996  -3.7297   0.0000   0.3121
   7.400   1.1346   0.01011   0.00472  -0.0801  0.0127  0.7017  -3.8101   0.0000   0.3112
   7.500   1.1443   0.01020   0.00481  -0.0799  0.0123  0.7037  -3.8905   0.0000   0.3104
   7.600   1.1538   0.01029   0.00490  -0.0797  0.0119  0.7057  -3.9705   0.0000   0.3095
   7.700   1.1635   0.01038   0.00498  -0.0796  0.0116  0.7076  -4.0520   0.0000   0.3086
   7.800   1.1732   0.01046   0.00507  -0.0794  0.0115  0.7093  -4.1347   0.0000   0.3078
   7.900   1.1828   0.01054   0.00515  -0.0792  0.0113  0.7112  -4.2177   0.0000   0.3070
   8.000   1.1923   0.01062   0.00524  -0.0790  0.0111  0.7134  -4.3008   0.0000   0.3061
   8.100   1.2017   0.01071   0.00533  -0.0788  0.0109  0.7156  -4.3841   0.0000   0.3053
   8.200   1.2109   0.01081   0.00542  -0.0786  0.0107  0.7177  -4.4673   0.0000   0.3045
   8.300   1.2200   0.01091   0.00552  -0.0783  0.0104  0.7195  -4.5501   0.0000   0.3036
   8.400   1.2290   0.01102   0.00563  -0.0780  0.0101  0.7214  -4.6318   0.0000   0.3028
   8.500   1.2381   0.01111   0.00573  -0.0778  0.0100  0.7238  -4.7160   0.0000   0.3020
   8.600   1.2473   0.01119   0.00582  -0.0775  0.0099  0.7261  -4.8016   0.0000   0.3012
   8.700   1.2564   0.01128   0.00591  -0.0773  0.0099  0.7282  -4.8873   0.0000   0.3004
   8.800   1.2654   0.01138   0.00601  -0.0770  0.0098  0.7301  -4.9730   0.0000   0.2996
   8.900   1.2743   0.01147   0.00611  -0.0767  0.0097  0.7323  -5.0588   0.0000   0.2988
   9.000   1.2830   0.01157   0.00621  -0.0763  0.0096  0.7348  -5.1446   0.0000   0.2980
   9.100   1.2913   0.01166   0.00631  -0.0759  0.0095  0.7373  -5.2289   0.0000   0.2971
   9.200   1.2988   0.01175   0.00641  -0.0753  0.0094  0.7396  -5.3105   0.0000   0.2962
   9.300   1.3058   0.01185   0.00651  -0.0747  0.0093  0.7418  -5.3908   0.0000   0.2952
   9.400   1.3129   0.01195   0.00662  -0.0740  0.0092  0.7446  -5.4711   0.0000   0.2943
   9.500   1.3198   0.01206   0.00673  -0.0733  0.0091  0.7473  -5.5515   0.0000   0.2933
   9.600   1.3267   0.01218   0.00686  -0.0726  0.0090  0.7498  -5.6316   0.0000   0.2924
   9.700   1.3335   0.01231   0.00699  -0.0719  0.0088  0.7522  -5.7111   0.0000   0.2914
   9.800   1.3402   0.01243   0.00713  -0.0713  0.0087  0.7551  -5.7901   0.0000   0.2905
   9.900   1.3468   0.01257   0.00727  -0.0705  0.0086  0.7580  -5.8684   0.0000   0.2896
  10.000   1.3534   0.01271   0.00742  -0.0699  0.0085  0.7606  -5.9479   0.0000   0.2886
  10.100   1.3606   0.01283   0.00755  -0.0693  0.0085  0.7633  -6.0323   0.0000   0.2878
  10.200   1.3677   0.01295   0.00768  -0.0687  0.0085  0.7664  -6.1168   0.0000   0.2869
  10.300   1.3748   0.01308   0.00781  -0.0681  0.0084  0.7694  -6.2016   0.0000   0.2861
  10.400   1.3817   0.01321   0.00795  -0.0675  0.0084  0.7720  -6.2863   0.0000   0.2853
  10.500   1.3887   0.01334   0.00810  -0.0670  0.0084  0.7753  -6.3715   0.0000   0.2845
  10.600   1.3956   0.01348   0.00825  -0.0664  0.0083  0.7786  -6.4567   0.0000   0.2837
  10.700   1.4025   0.01363   0.00840  -0.0658  0.0083  0.7815  -6.5420   0.0000   0.2829
  10.800   1.4094   0.01377   0.00856  -0.0652  0.0083  0.7847  -6.6277   0.0000   0.2821
  10.900   1.4161   0.01392   0.00872  -0.0646  0.0082  0.7881  -6.7152   0.0000   0.2813
  11.000   1.4229   0.01408   0.00889  -0.0641  0.0082  0.7912  -6.8050   0.0000   0.2805
  11.100   1.4295   0.01424   0.00906  -0.0635  0.0081  0.7944  -6.8947   0.0000   0.2797
  11.200   1.4362   0.01440   0.00923  -0.0629  0.0081  0.7980  -6.9850   0.0000   0.2790
  11.300   1.4428   0.01457   0.00941  -0.0624  0.0081  0.8013  -7.0757   0.0000   0.2782
  11.400   1.4493   0.01475   0.00960  -0.0618  0.0080  0.8046  -7.1664   0.0000   0.2774
  11.500   1.4559   0.01492   0.00979  -0.0612  0.0080  0.8084  -7.2577   0.0000   0.2767
  11.600   1.4623   0.01511   0.00998  -0.0607  0.0079  0.8118  -7.3487   0.0000   0.2760
  11.700   1.4687   0.01530   0.01019  -0.0601  0.0079  0.8155  -7.4401   0.0000   0.2752
  11.800   1.4750   0.01549   0.01039  -0.0595  0.0078  0.8193  -7.5315   0.0000   0.2745
  12.000   1.4875   0.01590   0.01083  -0.0584  0.0077  0.8267  -7.7140   0.0000   0.2731
  12.100   1.4935   0.01612   0.01106  -0.0578  0.0077  0.8306  -7.8047   0.0000   0.2723
  12.200   1.4995   0.01634   0.01129  -0.0572  0.0076  0.8343  -7.8955   0.0000   0.2716
  12.300   1.5054   0.01657   0.01154  -0.0567  0.0076  0.8386  -7.9858   0.0000   0.2709
  12.500   1.5170   0.01706   0.01206  -0.0555  0.0074  0.8470  -8.1652   0.0000   0.2695
  12.600   1.5225   0.01732   0.01233  -0.0549  0.0074  0.8515  -8.2537   0.0000   0.2688
  12.700   1.5280   0.01758   0.01262  -0.0543  0.0073  0.8564  -8.3419   0.0000   0.2681
  12.800   1.5333   0.01786   0.01292  -0.0537  0.0073  0.8615  -8.4292   0.0000   0.2674
  12.900   1.5384   0.01815   0.01323  -0.0530  0.0072  0.8672  -8.5155   0.0000   0.2667
  13.000   1.5434   0.01845   0.01355  -0.0524  0.0072  0.8731  -8.6013   0.0000   0.2660
  13.100   1.5486   0.01874   0.01387  -0.0518  0.0071  0.8801  -8.6891   0.0000   0.2653
  13.200   1.5544   0.01899   0.01414  -0.0513  0.0071  0.8876  -8.7832   0.0000   0.2646
  13.300   1.5600   0.01925   0.01443  -0.0507  0.0071  0.8962  -8.8764   0.0000   0.2640
  13.400   1.5655   0.01951   0.01472  -0.0502  0.0071  0.9056  -8.9694   0.0000   0.2633
  13.500   1.5709   0.01977   0.01501  -0.0496  0.0071  0.9152  -9.0650   0.0000   0.2627
  13.600   1.5761   0.02005   0.01531  -0.0490  0.0071  0.9250  -9.1604   0.0000   0.2620
  13.700   1.5811   0.02031   0.01561  -0.0484  0.0071  0.9361  -9.2552   0.0000   0.2613
  13.800   1.5850   0.02051   0.01590  -0.0475  0.0070  0.9696  -9.3437   0.0000   0.2605
  14.000   1.5968   0.02109   0.01652  -0.0468  0.0070  1.0000  -9.5461   0.0000   0.2594
  14.100   1.6024   0.02141   0.01685  -0.0463  0.0070  1.0000  -9.6458   0.0000   0.2588
  14.200   1.6079   0.02174   0.01718  -0.0459  0.0070  1.0000  -9.7455   0.0000   0.2583
  14.300   1.6134   0.02206   0.01752  -0.0455  0.0070  1.0000  -9.8457   0.0000   0.2577
  14.400   1.6187   0.02241   0.01787  -0.0450  0.0069  1.0000  -9.9445   0.0000   0.2572
  14.500   1.6239   0.02276   0.01823  -0.0446  0.0069  1.0000  -10.0437   0.0000   0.2566
  14.600   1.6292   0.02311   0.01859  -0.0441  0.0069  1.0000  -10.1430   0.0000   0.2560
  14.700   1.6343   0.02348   0.01897  -0.0437  0.0069  1.0000  -10.2415   0.0000   0.2555
  14.800   1.6394   0.02384   0.01934  -0.0433  0.0069  1.0000  -10.3411   0.0000   0.2549
  14.900   1.6444   0.02422   0.01973  -0.0429  0.0069  1.0000  -10.4399   0.0000   0.2544
  15.000   1.6493   0.02461   0.02013  -0.0424  0.0068  1.0000  -10.5384   0.0000   0.2539
  15.100   1.6543   0.02500   0.02052  -0.0420  0.0068  1.0000  -10.6379   0.0000   0.2533
  15.200   1.6591   0.02540   0.02094  -0.0416  0.0068  1.0000  -10.7361   0.0000   0.2528
  15.300   1.6639   0.02581   0.02136  -0.0412  0.0068  1.0000  -10.8350   0.0000   0.2523
  15.400   1.6687   0.02622   0.02177  -0.0408  0.0067  1.0000  -10.9346   0.0000   0.2518
  15.500   1.6733   0.02665   0.02221  -0.0404  0.0067  1.0000  -11.0354   0.0000   0.2512
  15.600   1.6781   0.02707   0.02264  -0.0400  0.0067  1.0000  -11.1384   0.0000   0.2507
  15.700   1.6827   0.02750   0.02308  -0.0397  0.0067  1.0000  -11.2410   0.0000   0.2502
  15.800   1.6871   0.02795   0.02354  -0.0393  0.0067  1.0000  -11.3429   0.0000   0.2497
  15.900   1.6918   0.02839   0.02399  -0.0389  0.0066  1.0000  -11.4464   0.0000   0.2492
  16.000   1.6962   0.02885   0.02446  -0.0386  0.0066  1.0000  -11.5484   0.0000   0.2487
  16.100   1.7005   0.02932   0.02494  -0.0382  0.0066  1.0000  -11.6507   0.0000   0.2483
  16.200   1.7050   0.02979   0.02542  -0.0379  0.0066  1.0000  -11.7539   0.0000   0.2478
  16.300   1.7091   0.03029   0.02593  -0.0375  0.0065  1.0000  -11.8549   0.0000   0.2473
  16.400   1.7133   0.03079   0.02644  -0.0372  0.0065  1.0000  -11.9567   0.0000   0.2468
  16.500   1.7174   0.03129   0.02696  -0.0368  0.0065  1.0000  -12.0579   0.0000   0.2464
  16.600   1.7212   0.03183   0.02750  -0.0365  0.0065  1.0000  -12.1577   0.0000   0.2459
  16.700   1.7253   0.03235   0.02804  -0.0362  0.0064  1.0000  -12.2592   0.0000   0.2454
  16.800   1.7291   0.03290   0.02860  -0.0358  0.0064  1.0000  -12.3590   0.0000   0.2450
  16.900   1.7328   0.03346   0.02917  -0.0355  0.0064  1.0000  -12.4586   0.0000   0.2445
  17.000   1.7366   0.03402   0.02974  -0.0352  0.0064  1.0000  -12.5593   0.0000   0.2441
  17.100   1.7401   0.03461   0.03035  -0.0349  0.0063  1.0000  -12.6573   0.0000   0.2436
  17.200   1.7436   0.03520   0.03095  -0.0346  0.0063  1.0000  -12.7585   0.0000   0.2432
  17.300   1.7470   0.03581   0.03157  -0.0343  0.0063  1.0000  -12.8596   0.0000   0.2427
  17.400   1.7501   0.03645   0.03223  -0.0340  0.0062  1.0000  -12.9582   0.0000   0.2423
  17.500   1.7533   0.03708   0.03288  -0.0338  0.0062  1.0000  -13.0583   0.0000   0.2419
  17.600   1.7561   0.03777   0.03357  -0.0335  0.0062  1.0000  -13.1549   0.0000   0.2414
  17.700   1.7588   0.03846   0.03428  -0.0332  0.0061  1.0000  -13.2510   0.0000   0.2410
  17.800   1.7615   0.03916   0.03500  -0.0330  0.0061  1.0000  -13.3466   0.0000   0.2406
  17.900   1.7637   0.03992   0.03578  -0.0327  0.0061  1.0000  -13.4385   0.0000   0.2402
  18.000   1.7660   0.04067   0.03655  -0.0324  0.0060  1.0000  -13.5312   0.0000   0.2398
  18.100   1.7678   0.04148   0.03738  -0.0322  0.0060  1.0000  -13.6193   0.0000   0.2394
  18.200   1.7696   0.04229   0.03821  -0.0319  0.0060  1.0000  -13.7074   0.0000   0.2390
  18.300   1.7710   0.04315   0.03910  -0.0317  0.0059  1.0000  -13.7926   0.0000   0.2386
  18.400   1.7721   0.04406   0.04003  -0.0315  0.0059  1.0000  -13.8746   0.0000   0.2382
  18.500   1.7749   0.04480   0.04078  -0.0313  0.0059  1.0000  -13.9735   0.0000   0.2378
  18.600   1.7777   0.04555   0.04155  -0.0312  0.0059  1.0000  -14.0731   0.0000   0.2375
  18.700   1.7808   0.04627   0.04229  -0.0311  0.0059  1.0000  -14.1750   0.0000   0.2371
  18.800   1.7837   0.04702   0.04304  -0.0310  0.0059  1.0000  -14.2761   0.0000   0.2368
  18.900   1.7863   0.04780   0.04384  -0.0309  0.0059  1.0000  -14.3754   0.0000   0.2365
  19.000   1.7892   0.04854   0.04460  -0.0308  0.0058  1.0000  -14.4806   0.0000   0.2361
  19.100   1.7918   0.04934   0.04542  -0.0307  0.0058  1.0000  -14.5824   0.0000   0.2358
  19.200   1.7943   0.05015   0.04624  -0.0306  0.0058  1.0000  -14.6844   0.0000   0.2355
  19.300   1.7971   0.05094   0.04704  -0.0306  0.0058  1.0000  -14.7886   0.0000   0.2352
  19.400   1.7993   0.05179   0.04791  -0.0305  0.0058  1.0000  -14.8882   0.0000   0.2348
  19.500   1.8017   0.05262   0.04876  -0.0305  0.0058  1.0000  -14.9899   0.0000   0.2345
  19.600   1.8041   0.05347   0.04962  -0.0305  0.0058  1.0000  -15.0913   0.0000   0.2342
  19.700   1.8060   0.05437   0.05054  -0.0304  0.0058  1.0000  -15.1884   0.0000   0.2340
  19.800   1.8083   0.05524   0.05142  -0.0304  0.0058  1.0000  -15.2890   0.0000   0.2337
  19.900   1.8100   0.05617   0.05237  -0.0304  0.0058  1.0000  -15.3850   0.0000   0.2334
  20.000   1.8118   0.05711   0.05333  -0.0305  0.0058  1.0000  -15.4810   0.0000   0.2331
  20.100   1.8137   0.05804   0.05428  -0.0305  0.0058  1.0000  -15.5785   0.0000   0.2328
  20.200   1.8149   0.05906   0.05531  -0.0305  0.0057  1.0000  -15.6701   0.0000   0.2326
  20.300   1.8166   0.06003   0.05631  -0.0306  0.0057  1.0000  -15.7653   0.0000   0.2323
  20.400   1.8178   0.06107   0.05736  -0.0307  0.0057  1.0000  -15.8566   0.0000   0.2321
  20.500   1.8189   0.06212   0.05843  -0.0308  0.0057  1.0000  -15.9470   0.0000   0.2318
  20.600   1.8202   0.06315   0.05948  -0.0309  0.0057  1.0000  -16.0393   0.0000   0.2316
  20.700   1.8208   0.06427   0.06062  -0.0310  0.0057  1.0000  -16.1252   0.0000   0.2314
  20.800   1.8220   0.06533   0.06170  -0.0311  0.0057  1.0000  -16.2161   0.0000   0.2312
  20.900   1.8224   0.06649   0.06289  -0.0313  0.0057  1.0000  -16.3005   0.0000   0.2310
  21.000   1.8232   0.06763   0.06404  -0.0314  0.0057  1.0000  -16.3875   0.0000   0.2308
  21.100   1.8238   0.06879   0.06522  -0.0316  0.0056  1.0000  -16.4729   0.0000   0.2306
  21.200   1.8240   0.07000   0.06646  -0.0318  0.0056  1.0000  -16.5555   0.0000   0.2304
  21.300   1.8246   0.07117   0.06765  -0.0321  0.0056  1.0000  -16.6413   0.0000   0.2302
  21.400   1.8245   0.07245   0.06895  -0.0323  0.0056  1.0000  -16.7207   0.0000   0.2301
  21.500   1.8249   0.07365   0.07017  -0.0326  0.0056  1.0000  -16.8073   0.0000   0.2299
  21.600   1.8245   0.07498   0.07152  -0.0328  0.0056  1.0000  -16.8854   0.0000   0.2298
  21.700   1.8247   0.07624   0.07281  -0.0331  0.0056  1.0000  -16.9693   0.0000   0.2297
  21.800   1.8242   0.07761   0.07420  -0.0335  0.0056  1.0000  -17.0459   0.0000   0.2296
  21.900   1.8240   0.07893   0.07554  -0.0338  0.0055  1.0000  -17.1259   0.0000   0.2294
  22.000   1.8234   0.08034   0.07697  -0.0342  0.0055  1.0000  -17.2014   0.0000   0.2294
  22.100   1.8228   0.08172   0.07838  -0.0346  0.0055  1.0000  -17.2777   0.0000   0.2293
  22.200   1.8220   0.08317   0.07985  -0.0350  0.0055  1.0000  -17.3508   0.0000   0.2292
  22.300   1.8212   0.08462   0.08132  -0.0354  0.0055  1.0000  -17.4228   0.0000   0.2291
  22.400   1.8200   0.08611   0.08284  -0.0359  0.0055  1.0000  -17.4920   0.0000   0.2291
  22.500   1.8189   0.08762   0.08437  -0.0364  0.0055  1.0000  -17.5610   0.0000   0.2291
  22.600   1.8175   0.08919   0.08596  -0.0369  0.0054  1.0000  -17.6260   0.0000   0.2291
  22.700   1.8162   0.09073   0.08753  -0.0374  0.0054  1.0000  -17.6929   0.0000   0.2291
  22.800   1.8143   0.09238   0.08921  -0.0380  0.0054  1.0000  -17.7526   0.0000   0.2291
  22.900   1.8130   0.09396   0.09081  -0.0386  0.0054  1.0000  -17.8176   0.0000   0.2291
  23.000   1.8107   0.09569   0.09257  -0.0392  0.0054  1.0000  -17.8714   0.0000   0.2292
  23.100   1.8090   0.09733   0.09423  -0.0399  0.0054  1.0000  -17.9320   0.0000   0.2292
  23.200   1.8063   0.09912   0.09605  -0.0406  0.0054  1.0000  -17.9806   0.0000   0.2294
  23.300   1.8040   0.10088   0.09783  -0.0413  0.0054  1.0000  -18.0325   0.0000   0.2295
  23.400   1.8015   0.10267   0.09966  -0.0421  0.0053  1.0000  -18.0816   0.0000   0.2296
  23.500   1.7984   0.10457   0.10158  -0.0429  0.0053  1.0000  -18.1238   0.0000   0.2298
  23.600   1.7959   0.10637   0.10341  -0.0437  0.0053  1.0000  -18.1721   0.0000   0.2299
  23.700   1.7927   0.10832   0.10539  -0.0446  0.0053  1.0000  -18.2098   0.0000   0.2301
  23.800   1.7894   0.11026   0.10736  -0.0455  0.0053  1.0000  -18.2470   0.0000   0.2304
  23.900   1.7865   0.11216   0.10929  -0.0464  0.0053  1.0000  -18.2877   0.0000   0.2306
  24.000   1.7826   0.11421   0.11137  -0.0475  0.0053  1.0000  -18.3158   0.0000   0.2309
  24.100   1.7788   0.11626   0.11345  -0.0485  0.0053  1.0000  -18.3438   0.0000   0.2312
  24.200   1.7754   0.11825   0.11547  -0.0496  0.0052  1.0000  -18.3756   0.0000   0.2315
  24.300   1.7713   0.12038   0.11763  -0.0507  0.0052  1.0000  -18.3974   0.0000   0.2319
  24.400   1.7670   0.12254   0.11982  -0.0519  0.0052  1.0000  -18.4153   0.0000   0.2323
  24.500   1.7631   0.12465   0.12196  -0.0531  0.0052  1.0000  -18.4363   0.0000   0.2327
  24.600   1.7590   0.12679   0.12413  -0.0543  0.0052  1.0000  -18.4548   0.0000   0.2331
  24.700   1.7541   0.12906   0.12644  -0.0557  0.0052  1.0000  -18.4614   0.0000   0.2336
  24.800   1.7492   0.13135   0.12876  -0.0570  0.0052  1.0000  -18.4660   0.0000   0.2341
  24.900   1.7445   0.13359   0.13104  -0.0584  0.0052  1.0000  -18.4720   0.0000   0.2347
  25.000   1.7397   0.13586   0.13334  -0.0598  0.0052  1.0000  -18.4750   0.0000   0.2352


