xflr5 v6.47

 Calculated polar for: NACA 0012

 1 1 Reynolds number fixed          Mach number fixed         

 xtrf =   1.000 (top)        1.000 (bottom)
 Mach =   0.000     Re =     1.000 e 6     Ncrit =   9.000

  alpha     CL        CD       CDp       Cm    Top Xtr Bot Xtr   Cpmin    Chinge    XCp    
 ------- -------- --------- --------- -------- ------- ------- -------- --------- ---------
 -20.700  -1.0345   0.17934   0.17732   0.0424  1.0000  0.0129  -7.5919   0.0000   0.2603
 -20.600  -1.0536   0.17259   0.17050   0.0383  1.0000  0.0130  -7.9151   0.0000   0.2556
 -20.500  -1.0652   0.16792   0.16577   0.0355  1.0000  0.0130  -8.0977   0.0000   0.2526
 -20.400  -1.0750   0.16380   0.16160   0.0330  1.0000  0.0130  -8.2424   0.0000   0.2500
 -20.300  -1.0835   0.16009   0.15784   0.0307  1.0000  0.0131  -8.3593   0.0000   0.2479
 -20.200  -1.0912   0.15661   0.15432   0.0287  1.0000  0.0131  -8.4597   0.0000   0.2459
 -20.100  -1.0993   0.15312   0.15079   0.0266  1.0000  0.0131  -8.5599   0.0000   0.2440
 -20.000  -1.1069   0.14978   0.14741   0.0247  1.0000  0.0131  -8.6494   0.0000   0.2422
 -19.900  -1.1142   0.14655   0.14415   0.0228  1.0000  0.0132  -8.7308   0.0000   0.2406
 -19.800  -1.1220   0.14325   0.14080   0.0209  1.0000  0.0132  -8.8151   0.0000   0.2389
 -19.700  -1.1293   0.14007   0.13758   0.0191  1.0000  0.0132  -8.8899   0.0000   0.2374
 -19.600  -1.1367   0.13690   0.13438   0.0173  1.0000  0.0132  -8.9630   0.0000   0.2359
 -19.500  -1.1446   0.13367   0.13110   0.0155  1.0000  0.0133  -9.0391   0.0000   0.2344
 -19.400  -1.1522   0.13053   0.12792   0.0138  1.0000  0.0133  -9.1082   0.0000   0.2330
 -19.300  -1.1600   0.12739   0.12475   0.0121  1.0000  0.0133  -9.1772   0.0000   0.2316
 -19.200  -1.1683   0.12420   0.12150   0.0104  1.0000  0.0133  -9.2492   0.0000   0.2303
 -19.100  -1.1766   0.12105   0.11831   0.0087  1.0000  0.0133  -9.3177   0.0000   0.2290
 -19.000  -1.1848   0.11792   0.11515   0.0071  1.0000  0.0134  -9.3834   0.0000   0.2277
 -18.900  -1.1933   0.11476   0.11194   0.0054  1.0000  0.0134  -9.4499   0.0000   0.2265
 -18.800  -1.2020   0.11157   0.10871   0.0037  1.0000  0.0134  -9.5171   0.0000   0.2253
 -18.700  -1.2108   0.10841   0.10550   0.0021  1.0000  0.0134  -9.5821   0.0000   0.2241
 -18.600  -1.2196   0.10528   0.10233   0.0004  1.0000  0.0134  -9.6453   0.0000   0.2230
 -18.500  -1.2285   0.10216   0.09916  -0.0012  1.0000  0.0134  -9.7078   0.0000   0.2219
 -18.400  -1.2376   0.09905   0.09600  -0.0027  1.0000  0.0134  -9.7692   0.0000   0.2208
 -18.300  -1.2465   0.09595   0.09285  -0.0043  1.0000  0.0135  -9.8282   0.0000   0.2198
 -18.200  -1.2555   0.09288   0.08973  -0.0059  1.0000  0.0135  -9.8854   0.0000   0.2188
 -18.100  -1.2644   0.08984   0.08664  -0.0075  1.0000  0.0135  -9.9402   0.0000   0.2178
 -18.000  -1.2732   0.08684   0.08360  -0.0090  1.0000  0.0135  -9.9923   0.0000   0.2169
 -17.900  -1.2820   0.08390   0.08061  -0.0105  1.0000  0.0135  -10.0416   0.0000   0.2160
 -17.800  -1.2905   0.08102   0.07767  -0.0119  1.0000  0.0135  -10.0870   0.0000   0.2151
 -17.700  -1.2987   0.07819   0.07479  -0.0134  1.0000  0.0135  -10.1280   0.0000   0.2143
 -17.600  -1.3066   0.07543   0.07198  -0.0148  1.0000  0.0135  -10.1646   0.0000   0.2136
 -17.500  -1.3142   0.07275   0.06925  -0.0161  1.0000  0.0136  -10.1970   0.0000   0.2128
 -17.400  -1.3215   0.07015   0.06659  -0.0174  1.0000  0.0136  -10.2249   0.0000   0.2122
 -17.300  -1.3284   0.06764   0.06403  -0.0187  1.0000  0.0136  -10.2478   0.0000   0.2115
 -17.200  -1.3348   0.06522   0.06156  -0.0199  1.0000  0.0136  -10.2646   0.0000   0.2109
 -17.100  -1.3406   0.06288   0.05917  -0.0211  1.0000  0.0137  -10.2757   0.0000   0.2104
 -17.000  -1.3460   0.06063   0.05687  -0.0222  1.0000  0.0137  -10.2816   0.0000   0.2098
 -16.900  -1.3510   0.05847   0.05466  -0.0233  1.0000  0.0137  -10.2825   0.0000   0.2093
 -16.800  -1.3555   0.05641   0.05255  -0.0243  1.0000  0.0138  -10.2783   0.0000   0.2089
 -16.700  -1.3595   0.05443   0.05053  -0.0252  1.0000  0.0138  -10.2686   0.0000   0.2085
 -16.600  -1.3629   0.05255   0.04859  -0.0261  1.0000  0.0139  -10.2534   0.0000   0.2081
 -16.500  -1.3659   0.05075   0.04674  -0.0270  1.0000  0.0139  -10.2336   0.0000   0.2078
 -16.400  -1.3685   0.04903   0.04498  -0.0277  1.0000  0.0140  -10.2095   0.0000   0.2075
 -16.300  -1.3707   0.04740   0.04330  -0.0284  1.0000  0.0140  -10.1812   0.0000   0.2073
 -16.200  -1.3725   0.04586   0.04171  -0.0291  1.0000  0.0141  -10.1489   0.0000   0.2071
 -16.100  -1.3738   0.04440   0.04020  -0.0296  1.0000  0.0141  -10.1125   0.0000   0.2069
 -16.000  -1.3748   0.04300   0.03876  -0.0302  1.0000  0.0142  -10.0720   0.0000   0.2068
 -15.900  -1.3754   0.04169   0.03740  -0.0306  1.0000  0.0143  -10.0292   0.0000   0.2067
 -15.800  -1.3757   0.04044   0.03611  -0.0310  1.0000  0.0143  -9.9869   0.0000   0.2067
 -15.700  -1.3757   0.03927   0.03489  -0.0312  1.0000  0.0144  -9.9416   0.0000   0.2067
 -15.600  -1.3753   0.03817   0.03374  -0.0315  1.0000  0.0145  -9.8935   0.0000   0.2068
 -15.500  -1.3747   0.03712   0.03265  -0.0316  1.0000  0.0145  -9.8424   0.0000   0.2069
 -15.400  -1.3736   0.03614   0.03163  -0.0317  1.0000  0.0146  -9.7882   0.0000   0.2070
 -15.300  -1.3723   0.03522   0.03067  -0.0318  1.0000  0.0146  -9.7313   0.0000   0.2071
 -15.200  -1.3706   0.03436   0.02976  -0.0317  1.0000  0.0147  -9.6720   0.0000   0.2073
 -15.100  -1.3687   0.03356   0.02891  -0.0317  1.0000  0.0148  -9.6103   0.0000   0.2076
 -15.000  -1.3665   0.03280   0.02811  -0.0315  1.0000  0.0148  -9.5460   0.0000   0.2078
 -14.900  -1.3640   0.03209   0.02737  -0.0314  1.0000  0.0149  -9.4791   0.0000   0.2081
 -14.800  -1.3611   0.03143   0.02667  -0.0312  1.0000  0.0149  -9.4101   0.0000   0.2084
 -14.700  -1.3580   0.03081   0.02601  -0.0309  1.0000  0.0150  -9.3389   0.0000   0.2088
 -14.600  -1.3551   0.03020   0.02536  -0.0306  1.0000  0.0150  -9.2690   0.0000   0.2091
 -14.500  -1.3588   0.02906   0.02416  -0.0299  1.0000  0.0152  -9.2514   0.0000   0.2099
 -14.400  -1.3610   0.02811   0.02316  -0.0292  1.0000  0.0153  -9.2201   0.0000   0.2107
 -14.300  -1.3617   0.02730   0.02232  -0.0284  1.0000  0.0154  -9.1770   0.0000   0.2114
 -14.200  -1.3611   0.02661   0.02159  -0.0277  1.0000  0.0156  -9.1241   0.0000   0.2122
 -14.100  -1.3596   0.02602   0.02097  -0.0269  1.0000  0.0157  -9.0633   0.0000   0.2129
 -14.000  -1.3572   0.02549   0.02041  -0.0262  1.0000  0.0159  -8.9960   0.0000   0.2136
 -13.900  -1.3542   0.02503   0.01992  -0.0254  1.0000  0.0160  -8.9239   0.0000   0.2143
 -13.800  -1.3506   0.02460   0.01948  -0.0247  1.0000  0.0161  -8.8482   0.0000   0.2149
 -13.700  -1.3467   0.02422   0.01906  -0.0240  1.0000  0.0162  -8.7696   0.0000   0.2156
 -13.600  -1.3423   0.02386   0.01868  -0.0233  1.0000  0.0164  -8.6888   0.0000   0.2162
 -13.500  -1.3378   0.02353   0.01833  -0.0225  1.0000  0.0165  -8.6067   0.0000   0.2169
 -13.400  -1.3331   0.02321   0.01798  -0.0218  1.0000  0.0167  -8.5239   0.0000   0.2176
 -13.300  -1.3282   0.02291   0.01766  -0.0210  1.0000  0.0168  -8.4401   0.0000   0.2182
 -13.200  -1.3231   0.02262   0.01735  -0.0203  1.0000  0.0170  -8.3554   0.0000   0.2189
 -13.100  -1.3178   0.02235   0.01706  -0.0195  1.0000  0.0171  -8.2698   0.0000   0.2196
 -13.000  -1.3122   0.02209   0.01677  -0.0188  1.0000  0.0173  -8.1827   0.0000   0.2202
 -12.900  -1.3060   0.02183   0.01649  -0.0182  1.0000  0.0175  -8.0929   0.0000   0.2208
 -12.800  -1.2992   0.02158   0.01622  -0.0177  1.0000  0.0177  -8.0004   0.0000   0.2213
 -12.700  -1.2922   0.02134   0.01595  -0.0172  1.0000  0.0179  -7.9069   0.0000   0.2217
 -12.600  -1.2849   0.02111   0.01569  -0.0167  1.0000  0.0180  -7.8126   0.0000   0.2222
 -12.500  -1.2774   0.02088   0.01544  -0.0163  1.0000  0.0182  -7.7174   0.0000   0.2226
 -12.400  -1.2697   0.02067   0.01520  -0.0159  1.0000  0.0183  -7.6214   0.0000   0.2230
 -12.300  -1.2618   0.02047   0.01498  -0.0155  1.0000  0.0184  -7.5247   0.0000   0.2234
 -12.200  -1.2558   0.02012   0.01459  -0.0148  1.0000  0.0186  -7.4433   0.0000   0.2240
 -12.100  -1.2516   0.01962   0.01406  -0.0140  1.0000  0.0189  -7.3751   0.0000   0.2248
 -12.000  -1.2456   0.01924   0.01366  -0.0133  1.0000  0.0192  -7.2941   0.0000   0.2254
 -11.900  -1.2387   0.01894   0.01334  -0.0128  1.0000  0.0195  -7.2061   0.0000   0.2259
 -11.800  -1.2312   0.01867   0.01307  -0.0123  1.0000  0.0197  -7.1142   0.0000   0.2264
 -11.700  -1.2233   0.01844   0.01282  -0.0119  1.0000  0.0200  -7.0204   0.0000   0.2268
 -11.600  -1.2152   0.01822   0.01259  -0.0115  1.0000  0.0202  -6.9256   0.0000   0.2272
 -11.500  -1.2070   0.01801   0.01237  -0.0112  1.0000  0.0205  -6.8306   0.0000   0.2276
 -11.400  -1.1986   0.01781   0.01215  -0.0108  1.0000  0.0207  -6.7358   0.0000   0.2280
 -11.300  -1.1902   0.01761   0.01193  -0.0104  1.0000  0.0210  -6.6413   0.0000   0.2284
 -11.200  -1.1817   0.01742   0.01172  -0.0101  1.0000  0.0213  -6.5471   0.0000   0.2288
 -11.100  -1.1731   0.01724   0.01152  -0.0097  1.0000  0.0215  -6.4531   0.0000   0.2292
 -11.000  -1.1644   0.01706   0.01132  -0.0094  1.0000  0.0218  -6.3588   0.0000   0.2295
 -10.900  -1.1555   0.01689   0.01113  -0.0090  1.0000  0.0220  -6.2642   0.0000   0.2299
 -10.800  -1.1465   0.01674   0.01096  -0.0087  1.0000  0.0222  -6.1691   0.0000   0.2302
 -10.700  -1.1388   0.01647   0.01066  -0.0082  1.0000  0.0225  -6.0847   0.0000   0.2308
 -10.600  -1.1317   0.01614   0.01032  -0.0077  1.0000  0.0230  -6.0039   0.0000   0.2313
 -10.500  -1.1237   0.01589   0.01007  -0.0072  1.0000  0.0234  -5.9206   0.0000   0.2318
 -10.400  -1.1152   0.01569   0.00986  -0.0068  1.0000  0.0238  -5.8368   0.0000   0.2323
 -10.300  -1.1065   0.01552   0.00968  -0.0065  1.0000  0.0242  -5.7521   0.0000   0.2327
 -10.200  -1.0976   0.01536   0.00952  -0.0061  1.0000  0.0246  -5.6666   0.0000   0.2331
 -10.100  -1.0886   0.01521   0.00936  -0.0058  1.0000  0.0250  -5.5815   0.0000   0.2335
 -10.000  -1.0796   0.01507   0.00920  -0.0054  1.0000  0.0254  -5.4969   0.0000   0.2339
  -9.900  -1.0706   0.01493   0.00905  -0.0051  1.0000  0.0258  -5.4126   0.0000   0.2343
  -9.800  -1.0615   0.01481   0.00891  -0.0048  1.0000  0.0262  -5.3282   0.0000   0.2347
  -9.700  -1.0526   0.01467   0.00876  -0.0044  1.0000  0.0265  -5.2461   0.0000   0.2351
  -9.600  -1.0453   0.01438   0.00846  -0.0037  1.0000  0.0272  -5.1749   0.0000   0.2358
  -9.500  -1.0372   0.01419   0.00826  -0.0033  1.0000  0.0278  -5.0971   0.0000   0.2364
  -9.400  -1.0287   0.01402   0.00810  -0.0028  1.0000  0.0283  -5.0177   0.0000   0.2369
  -9.300  -1.0201   0.01388   0.00795  -0.0023  1.0000  0.0289  -4.9380   0.0000   0.2375
  -9.200  -1.0115   0.01375   0.00781  -0.0019  1.0000  0.0294  -4.8586   0.0000   0.2380
  -9.100  -1.0027   0.01362   0.00767  -0.0015  1.0000  0.0299  -4.7796   0.0000   0.2386
  -9.000  -0.9939   0.01350   0.00754  -0.0010  1.0000  0.0304  -4.7008   0.0000   0.2391
  -8.900  -0.9850   0.01340   0.00742  -0.0006  1.0000  0.0308  -4.6217   0.0000   0.2396
  -8.800  -0.9773   0.01319   0.00721  -0.0000  1.0000  0.0316  -4.5505   0.0000   0.2404
  -8.700  -0.9693   0.01301   0.00703   0.0005  1.0000  0.0324  -4.4765   0.0000   0.2410
  -8.600  -0.9609   0.01287   0.00689   0.0010  1.0000  0.0331  -4.4009   0.0000   0.2417
  -8.500  -0.9524   0.01274   0.00677   0.0015  1.0000  0.0339  -4.3253   0.0000   0.2423
  -8.400  -0.9438   0.01263   0.00665   0.0020  1.0000  0.0346  -4.2497   0.0000   0.2430
  -8.300  -0.9351   0.01253   0.00654   0.0025  1.0000  0.0353  -4.1742   0.0000   0.2436
  -8.200  -0.9266   0.01242   0.00641   0.0030  1.0000  0.0360  -4.1007   0.0000   0.2443
  -8.100  -0.9188   0.01224   0.00624   0.0036  1.0000  0.0371  -4.0304   0.0000   0.2451
  -8.000  -0.9105   0.01211   0.00612   0.0041  1.0000  0.0381  -3.9579   0.0000   0.2458
  -7.900  -0.9021   0.01200   0.00601   0.0046  1.0000  0.0392  -3.8853   0.0000   0.2465
  -7.800  -0.8935   0.01190   0.00591   0.0051  1.0000  0.0401  -3.8174   0.0000   0.2472
  -7.700  -0.8849   0.01181   0.00580   0.0056  1.0000  0.0409  -3.7509   0.0000   0.2480
  -7.600  -0.8771   0.01165   0.00565   0.0062  1.0000  0.0423  -3.6882   0.0000   0.2488
  -7.500  -0.8688   0.01152   0.00554   0.0068  1.0000  0.0435  -3.6236   0.0000   0.2496
  -7.400  -0.8604   0.01142   0.00544   0.0073  1.0000  0.0448  -3.5588   0.0000   0.2504
  -7.300  -0.8518   0.01134   0.00534   0.0078  1.0000  0.0459  -3.4939   0.0000   0.2512
  -7.200  -0.8436   0.01121   0.00522   0.0084  1.0000  0.0473  -3.4311   0.0000   0.2520
  -7.100  -0.8354   0.01109   0.00512   0.0089  1.0000  0.0489  -3.3681   0.0000   0.2528
  -7.000  -0.8269   0.01099   0.00502   0.0094  1.0000  0.0505  -3.3048   0.0000   0.2537
  -6.900  -0.8176   0.01091   0.00494   0.0097  0.9999  0.0520  -3.2389   0.0000   0.2543
  -6.800  -0.8040   0.01075   0.00480   0.0091  0.9994  0.0546  -3.1604   0.0000   0.2538
  -6.700  -0.7902   0.01064   0.00470   0.0085  0.9988  0.0571  -3.0814   0.0000   0.2533
  -6.600  -0.7764   0.01051   0.00459   0.0078  0.9982  0.0598  -3.0034   0.0000   0.2528
  -6.500  -0.7625   0.01039   0.00448   0.0072  0.9977  0.0628  -2.9257   0.0000   0.2522
  -6.400  -0.7487   0.01027   0.00438   0.0066  0.9971  0.0658  -2.8492   0.0000   0.2516
  -6.300  -0.7351   0.01014   0.00427   0.0060  0.9963  0.0693  -2.7738   0.0000   0.2510
  -6.200  -0.7214   0.01002   0.00417   0.0054  0.9956  0.0728  -2.7022   0.0000   0.2504
  -6.100  -0.7076   0.00990   0.00407   0.0047  0.9949  0.0769  -2.6331   0.0000   0.2497
  -6.000  -0.6937   0.00977   0.00397   0.0041  0.9942  0.0814  -2.5646   0.0000   0.2490
  -5.900  -0.6796   0.00965   0.00387   0.0034  0.9936  0.0862  -2.4960   0.0000   0.2482
  -5.800  -0.6656   0.00952   0.00378   0.0027  0.9931  0.0918  -2.4280   0.0000   0.2473
  -5.700  -0.6522   0.00939   0.00368   0.0022  0.9921  0.0973  -2.3626   0.0000   0.2467
  -5.600  -0.6388   0.00927   0.00359   0.0016  0.9910  0.1030  -2.2976   0.0000   0.2460
  -5.400  -0.6112   0.00902   0.00341   0.0004  0.9892  0.1163  -2.1673   0.0000   0.2442
  -5.300  -0.5972   0.00889   0.00332  -0.0003  0.9885  0.1240  -2.1025   0.0000   0.2431
  -5.200  -0.5831   0.00875   0.00323  -0.0010  0.9879  0.1322  -2.0408   0.0000   0.2419
  -5.100  -0.5688   0.00862   0.00314  -0.0018  0.9873  0.1408  -1.9814   0.0000   0.2406
  -5.000  -0.5553   0.00849   0.00305  -0.0023  0.9862  0.1492  -1.9245   0.0000   0.2396
  -4.900  -0.5421   0.00837   0.00297  -0.0028  0.9848  0.1581  -1.8687   0.0000   0.2387
  -4.800  -0.5285   0.00824   0.00289  -0.0034  0.9836  0.1680  -1.8124   0.0000   0.2375
  -4.700  -0.5149   0.00811   0.00281  -0.0039  0.9825  0.1782  -1.7567   0.0000   0.2363
  -4.600  -0.5012   0.00798   0.00273  -0.0045  0.9814  0.1887  -1.7014   0.0000   0.2349
  -4.500  -0.4875   0.00786   0.00266  -0.0051  0.9804  0.1993  -1.6471   0.0000   0.2335
  -4.400  -0.4759   0.00775   0.00259  -0.0052  0.9778  0.2095  -1.6009   0.0000   0.2331
  -4.300  -0.4637   0.00763   0.00252  -0.0055  0.9756  0.2204  -1.5539   0.0000   0.2323
  -4.200  -0.4509   0.00751   0.00245  -0.0058  0.9738  0.2316  -1.5064   0.0000   0.2312
  -4.100  -0.4387   0.00740   0.00238  -0.0061  0.9717  0.2426  -1.4603   0.0000   0.2304
  -4.000  -0.4278   0.00730   0.00232  -0.0060  0.9682  0.2534  -1.4170   0.0000   0.2303
  -3.900  -0.4161   0.00719   0.00226  -0.0061  0.9656  0.2646  -1.3727   0.0000   0.2296
  -3.800  -0.4047   0.00709   0.00221  -0.0061  0.9627  0.2757  -1.3325   0.0000   0.2292
  -3.700  -0.3941   0.00700   0.00215  -0.0060  0.9587  0.2867  -1.2940   0.0000   0.2292
  -3.600  -0.3829   0.00691   0.00209  -0.0060  0.9557  0.2980  -1.2546   0.0000   0.2289
  -3.500  -0.3724   0.00682   0.00204  -0.0058  0.9514  0.3090  -1.2170   0.0000   0.2290
  -3.400  -0.3618   0.00673   0.00199  -0.0056  0.9474  0.3203  -1.1793   0.0000   0.2290
  -3.300  -0.3512   0.00664   0.00194  -0.0054  0.9433  0.3314  -1.1446   0.0000   0.2291
  -3.200  -0.3408   0.00656   0.00190  -0.0052  0.9385  0.3423  -1.1105   0.0000   0.2292
  -3.100  -0.3302   0.00648   0.00185  -0.0051  0.9342  0.3534  -1.0764   0.0000   0.2293
  -3.000  -0.3198   0.00641   0.00181  -0.0049  0.9289  0.3643  -1.0428   0.0000   0.2295
  -2.900  -0.3093   0.00634   0.00176  -0.0047  0.9242  0.3755  -1.0112   0.0000   0.2297
  -2.800  -0.2988   0.00627   0.00172  -0.0045  0.9184  0.3868  -0.9804   0.0000   0.2299
  -2.700  -0.2883   0.00620   0.00168  -0.0042  0.9133  0.3978  -0.9498   0.0000   0.2301
  -2.600  -0.2778   0.00613   0.00164  -0.0041  0.9071  0.4088  -0.9200   0.0000   0.2303
  -2.500  -0.2673   0.00607   0.00160  -0.0039  0.9015  0.4197  -0.8917   0.0000   0.2305
  -2.400  -0.2567   0.00602   0.00157  -0.0037  0.8949  0.4307  -0.8636   0.0000   0.2306
  -2.300  -0.2461   0.00596   0.00153  -0.0035  0.8887  0.4420  -0.8363   0.0000   0.2307
  -2.200  -0.2355   0.00591   0.00150  -0.0033  0.8817  0.4530  -0.8104   0.0000   0.2309
  -2.100  -0.2249   0.00586   0.00147  -0.0031  0.8750  0.4639  -0.7846   0.0000   0.2310
  -2.000  -0.2143   0.00581   0.00144  -0.0030  0.8678  0.4747  -0.7602   0.0000   0.2312
  -1.800  -0.1930   0.00573   0.00138  -0.0026  0.8530  0.4968  -0.7133   0.0000   0.2315
  -1.700  -0.1823   0.00569   0.00136  -0.0025  0.8450  0.5077  -0.6910   0.0000   0.2315
  -1.600  -0.1717   0.00565   0.00133  -0.0023  0.8372  0.5184  -0.6695   0.0000   0.2316
  -1.500  -0.1610   0.00563   0.00131  -0.0022  0.8288  0.5293  -0.6487   0.0000   0.2317
  -1.400  -0.1502   0.00559   0.00129  -0.0020  0.8204  0.5403  -0.6287   0.0000   0.2317
  -1.300  -0.1396   0.00557   0.00127  -0.0019  0.8120  0.5510  -0.6094   0.0000   0.2320
  -1.200  -0.1289   0.00554   0.00125  -0.0017  0.8030  0.5616  -0.5910   0.0000   0.2320
  -1.100  -0.1181   0.00552   0.00124  -0.0016  0.7942  0.5723  -0.5730   0.0000   0.2319
  -1.000  -0.1074   0.00550   0.00122  -0.0014  0.7852  0.5832  -0.5558   0.0000   0.2322
  -0.900  -0.0967   0.00548   0.00121  -0.0013  0.7758  0.5937  -0.5393   0.0000   0.2322
  -0.800  -0.0859   0.00546   0.00119  -0.0011  0.7665  0.6042  -0.5233   0.0000   0.2322
  -0.700  -0.0752   0.00546   0.00118  -0.0010  0.7571  0.6150  -0.5079   0.0000   0.2322
  -0.600  -0.0645   0.00544   0.00117  -0.0008  0.7473  0.6256  -0.4931   0.0000   0.2324
  -0.500  -0.0537   0.00542   0.00117  -0.0007  0.7376  0.6359  -0.4787   0.0000   0.2323
  -0.400  -0.0430   0.00542   0.00116  -0.0006  0.7279  0.6463  -0.4648   0.0000   0.2323
  -0.300  -0.0322   0.00542   0.00115  -0.0004  0.7178  0.6569  -0.4515   0.0000   0.2325
  -0.200  -0.0215   0.00541   0.00115  -0.0003  0.7078  0.6671  -0.4385   0.0000   0.2324
  -0.100  -0.0107   0.00540   0.00115  -0.0001  0.6979  0.6772  -0.4260   0.0000   0.2324
   0.000   0.0000   0.00541   0.00115  -0.0000  0.6877  0.6877  -0.4138   0.0000   0.4568
   0.100   0.0107   0.00540   0.00115   0.0001  0.6772  0.6979  -0.4260   0.0000   0.2324
   0.200   0.0215   0.00541   0.00115   0.0003  0.6671  0.7078  -0.4385   0.0000   0.2324
   0.300   0.0322   0.00542   0.00115   0.0004  0.6569  0.7178  -0.4515   0.0000   0.2325
   0.400   0.0430   0.00542   0.00116   0.0006  0.6463  0.7279  -0.4648   0.0000   0.2323
   0.500   0.0537   0.00542   0.00117   0.0007  0.6359  0.7376  -0.4787   0.0000   0.2323
   0.600   0.0645   0.00544   0.00117   0.0008  0.6256  0.7473  -0.4931   0.0000   0.2324
   0.700   0.0752   0.00546   0.00118   0.0010  0.6150  0.7571  -0.5079   0.0000   0.2322
   0.800   0.0859   0.00546   0.00119   0.0011  0.6042  0.7665  -0.5233   0.0000   0.2322
   0.900   0.0967   0.00548   0.00121   0.0013  0.5937  0.7758  -0.5393   0.0000   0.2322
   1.000   0.1074   0.00550   0.00122   0.0014  0.5832  0.7852  -0.5558   0.0000   0.2322
   1.100   0.1181   0.00552   0.00124   0.0016  0.5723  0.7942  -0.5730   0.0000   0.2319
   1.200   0.1289   0.00554   0.00125   0.0017  0.5616  0.8030  -0.5910   0.0000   0.2320
   1.300   0.1396   0.00557   0.00127   0.0019  0.5510  0.8120  -0.6094   0.0000   0.2320
   1.400   0.1502   0.00559   0.00129   0.0020  0.5403  0.8204  -0.6287   0.0000   0.2318
   1.500   0.1610   0.00563   0.00131   0.0022  0.5293  0.8288  -0.6487   0.0000   0.2317
   1.600   0.1717   0.00565   0.00133   0.0023  0.5184  0.8372  -0.6695   0.0000   0.2316
   1.700   0.1823   0.00569   0.00136   0.0025  0.5077  0.8450  -0.6910   0.0000   0.2315
   1.800   0.1930   0.00573   0.00138   0.0026  0.4968  0.8530  -0.7133   0.0000   0.2315
   1.900   0.2036   0.00577   0.00141   0.0028  0.4858  0.8604  -0.7362   0.0000   0.2312
   2.000   0.2143   0.00581   0.00144   0.0030  0.4747  0.8678  -0.7602   0.0000   0.2312
   2.100   0.2249   0.00586   0.00147   0.0031  0.4639  0.8750  -0.7846   0.0000   0.2311
   2.200   0.2356   0.00591   0.00150   0.0033  0.4530  0.8817  -0.8104   0.0000   0.2309
   2.300   0.2461   0.00596   0.00153   0.0035  0.4420  0.8887  -0.8363   0.0000   0.2308
   2.400   0.2567   0.00602   0.00157   0.0037  0.4307  0.8948  -0.8636   0.0000   0.2306
   2.500   0.2673   0.00607   0.00160   0.0039  0.4197  0.9014  -0.8917   0.0000   0.2305
   2.600   0.2778   0.00613   0.00164   0.0041  0.4088  0.9071  -0.9200   0.0000   0.2303
   2.700   0.2884   0.00620   0.00168   0.0042  0.3978  0.9133  -0.9498   0.0000   0.2301
   2.800   0.2988   0.00627   0.00172   0.0045  0.3868  0.9184  -0.9804   0.0000   0.2299
   2.900   0.3093   0.00634   0.00176   0.0047  0.3755  0.9242  -1.0112   0.0000   0.2297
   3.000   0.3198   0.00641   0.00181   0.0049  0.3643  0.9289  -1.0428   0.0000   0.2295
   3.100   0.3302   0.00648   0.00185   0.0051  0.3534  0.9342  -1.0764   0.0000   0.2293
   3.200   0.3408   0.00656   0.00190   0.0052  0.3423  0.9385  -1.1105   0.0000   0.2292
   3.300   0.3512   0.00664   0.00194   0.0054  0.3314  0.9433  -1.1446   0.0000   0.2291
   3.400   0.3618   0.00673   0.00199   0.0056  0.3203  0.9474  -1.1793   0.0000   0.2290
   3.500   0.3725   0.00682   0.00204   0.0058  0.3090  0.9514  -1.2170   0.0000   0.2290
   3.600   0.3829   0.00691   0.00209   0.0060  0.2980  0.9557  -1.2546   0.0000   0.2289
   3.700   0.3941   0.00700   0.00215   0.0060  0.2867  0.9587  -1.2940   0.0000   0.2292
   3.800   0.4047   0.00709   0.00221   0.0061  0.2757  0.9627  -1.3325   0.0000   0.2292
   3.900   0.4161   0.00719   0.00226   0.0061  0.2646  0.9656  -1.3727   0.0000   0.2296
   4.000   0.4278   0.00730   0.00232   0.0060  0.2534  0.9682  -1.4170   0.0000   0.2303
   4.100   0.4388   0.00740   0.00238   0.0061  0.2426  0.9717  -1.4603   0.0000   0.2304
   4.200   0.4509   0.00751   0.00245   0.0058  0.2316  0.9738  -1.5064   0.0000   0.2312
   4.300   0.4637   0.00763   0.00252   0.0055  0.2204  0.9756  -1.5539   0.0000   0.2323
   4.400   0.4759   0.00775   0.00259   0.0052  0.2095  0.9778  -1.6009   0.0000   0.2331
   4.500   0.4876   0.00786   0.00266   0.0051  0.1993  0.9804  -1.6471   0.0000   0.2335
   4.600   0.5012   0.00798   0.00273   0.0045  0.1887  0.9814  -1.7014   0.0000   0.2349
   4.700   0.5149   0.00811   0.00281   0.0039  0.1782  0.9825  -1.7567   0.0000   0.2363
   4.800   0.5285   0.00824   0.00289   0.0034  0.1680  0.9836  -1.8124   0.0000   0.2375
   4.900   0.5421   0.00837   0.00297   0.0028  0.1581  0.9848  -1.8687   0.0000   0.2387
   5.000   0.5553   0.00849   0.00305   0.0023  0.1492  0.9862  -1.9245   0.0000   0.2396
   5.100   0.5688   0.00862   0.00314   0.0017  0.1408  0.9873  -1.9815   0.0000   0.2406
   5.200   0.5831   0.00875   0.00323   0.0010  0.1322  0.9879  -2.0408   0.0000   0.2419
   5.300   0.5972   0.00889   0.00332   0.0003  0.1240  0.9885  -2.1026   0.0000   0.2431
   5.400   0.6112   0.00902   0.00341  -0.0004  0.1163  0.9892  -2.1673   0.0000   0.2442
   5.600   0.6388   0.00927   0.00359  -0.0016  0.1030  0.9910  -2.2976   0.0000   0.2460
   5.700   0.6522   0.00939   0.00368  -0.0022  0.0973  0.9921  -2.3626   0.0000   0.2467
   5.800   0.6656   0.00952   0.00378  -0.0027  0.0918  0.9931  -2.4281   0.0000   0.2473
   5.900   0.6797   0.00965   0.00387  -0.0034  0.0862  0.9936  -2.4961   0.0000   0.2482
   6.000   0.6937   0.00977   0.00397  -0.0041  0.0814  0.9942  -2.5647   0.0000   0.2490
   6.100   0.7076   0.00990   0.00407  -0.0047  0.0769  0.9949  -2.6332   0.0000   0.2498
   6.200   0.7214   0.01002   0.00417  -0.0054  0.0728  0.9956  -2.7023   0.0000   0.2504
   6.300   0.7351   0.01014   0.00427  -0.0060  0.0693  0.9963  -2.7739   0.0000   0.2510
   6.400   0.7487   0.01027   0.00438  -0.0066  0.0658  0.9971  -2.8493   0.0000   0.2516
   6.500   0.7625   0.01039   0.00448  -0.0072  0.0628  0.9977  -2.9259   0.0000   0.2522
   6.600   0.7764   0.01051   0.00459  -0.0079  0.0598  0.9982  -3.0035   0.0000   0.2528
   6.700   0.7902   0.01064   0.00470  -0.0085  0.0571  0.9988  -3.0815   0.0000   0.2533
   6.800   0.8040   0.01075   0.00480  -0.0091  0.0546  0.9994  -3.1605   0.0000   0.2538
   6.900   0.8176   0.01091   0.00494  -0.0097  0.0520  0.9999  -3.2390   0.0000   0.2543
   7.000   0.8269   0.01099   0.00502  -0.0094  0.0505  1.0000  -3.3045   0.0000   0.2536
   7.100   0.8353   0.01109   0.00512  -0.0089  0.0489  1.0000  -3.3679   0.0000   0.2528
   7.200   0.8435   0.01121   0.00522  -0.0083  0.0473  1.0000  -3.4308   0.0000   0.2520
   7.300   0.8518   0.01133   0.00534  -0.0078  0.0459  1.0000  -3.4936   0.0000   0.2511
   7.400   0.8603   0.01142   0.00544  -0.0073  0.0448  1.0000  -3.5585   0.0000   0.2504
   7.500   0.8687   0.01152   0.00554  -0.0068  0.0435  1.0000  -3.6233   0.0000   0.2496
   7.600   0.8770   0.01165   0.00565  -0.0062  0.0423  1.0000  -3.6880   0.0000   0.2488
   7.700   0.8848   0.01181   0.00580  -0.0056  0.0409  1.0000  -3.7506   0.0000   0.2479
   7.800   0.8934   0.01190   0.00591  -0.0051  0.0401  1.0000  -3.8171   0.0000   0.2472
   7.900   0.9020   0.01200   0.00601  -0.0046  0.0392  1.0000  -3.8850   0.0000   0.2465
   8.000   0.9104   0.01211   0.00612  -0.0041  0.0381  1.0000  -3.9576   0.0000   0.2458
   8.100   0.9187   0.01224   0.00624  -0.0036  0.0371  1.0000  -4.0302   0.0000   0.2451
   8.200   0.9265   0.01241   0.00641  -0.0030  0.0360  1.0000  -4.1004   0.0000   0.2443
   8.300   0.9350   0.01253   0.00654  -0.0025  0.0353  1.0000  -4.1740   0.0000   0.2436
   8.400   0.9437   0.01263   0.00665  -0.0020  0.0346  1.0000  -4.2495   0.0000   0.2429
   8.500   0.9523   0.01274   0.00677  -0.0015  0.0339  1.0000  -4.3251   0.0000   0.2423
   8.600   0.9608   0.01287   0.00689  -0.0010  0.0331  1.0000  -4.4007   0.0000   0.2417
   8.700   0.9692   0.01301   0.00703  -0.0005  0.0324  1.0000  -4.4764   0.0000   0.2410
   8.800   0.9773   0.01319   0.00721   0.0000  0.0316  1.0000  -4.5504   0.0000   0.2404
   8.900   0.9850   0.01340   0.00742   0.0006  0.0308  1.0000  -4.6216   0.0000   0.2396
   9.000   0.9939   0.01350   0.00754   0.0010  0.0304  1.0000  -4.7007   0.0000   0.2391
   9.100   1.0027   0.01362   0.00767   0.0015  0.0299  1.0000  -4.7795   0.0000   0.2386
   9.200   1.0114   0.01375   0.00781   0.0019  0.0294  1.0000  -4.8585   0.0000   0.2380
   9.300   1.0201   0.01388   0.00795   0.0024  0.0289  1.0000  -4.9380   0.0000   0.2375
   9.400   1.0287   0.01402   0.00810   0.0028  0.0283  1.0000  -5.0176   0.0000   0.2369
   9.500   1.0372   0.01419   0.00826   0.0033  0.0278  1.0000  -5.0971   0.0000   0.2364
   9.600   1.0453   0.01438   0.00846   0.0037  0.0272  1.0000  -5.1749   0.0000   0.2358
   9.700   1.0526   0.01467   0.00876   0.0044  0.0265  1.0000  -5.2461   0.0000   0.2351
   9.800   1.0615   0.01481   0.00891   0.0048  0.0262  1.0000  -5.3283   0.0000   0.2347
   9.900   1.0706   0.01493   0.00905   0.0051  0.0258  1.0000  -5.4127   0.0000   0.2343
  10.000   1.0797   0.01507   0.00920   0.0054  0.0254  1.0000  -5.4971   0.0000   0.2339
  10.100   1.0887   0.01521   0.00935   0.0058  0.0250  1.0000  -5.5817   0.0000   0.2335
  10.200   1.0976   0.01536   0.00951   0.0061  0.0246  1.0000  -5.6669   0.0000   0.2331
  10.300   1.1065   0.01552   0.00968   0.0065  0.0242  1.0000  -5.7523   0.0000   0.2327
  10.400   1.1153   0.01569   0.00986   0.0068  0.0238  1.0000  -5.8371   0.0000   0.2323
  10.500   1.1238   0.01589   0.01007   0.0072  0.0234  1.0000  -5.9209   0.0000   0.2318
  10.600   1.1318   0.01614   0.01032   0.0076  0.0230  1.0000  -6.0043   0.0000   0.2314
  10.700   1.1389   0.01647   0.01066   0.0082  0.0225  1.0000  -6.0850   0.0000   0.2308
  10.800   1.1466   0.01674   0.01096   0.0087  0.0222  1.0000  -6.1696   0.0000   0.2302
  10.900   1.1556   0.01689   0.01113   0.0090  0.0220  1.0000  -6.2647   0.0000   0.2299
  11.000   1.1645   0.01706   0.01132   0.0093  0.0218  1.0000  -6.3593   0.0000   0.2295
  11.100   1.1732   0.01723   0.01152   0.0097  0.0215  1.0000  -6.4536   0.0000   0.2292
  11.200   1.1818   0.01742   0.01172   0.0100  0.0213  1.0000  -6.5477   0.0000   0.2288
  11.300   1.1903   0.01761   0.01193   0.0104  0.0210  1.0000  -6.6420   0.0000   0.2284
  11.400   1.1987   0.01781   0.01215   0.0108  0.0207  1.0000  -6.7365   0.0000   0.2280
  11.500   1.2071   0.01801   0.01237   0.0111  0.0205  1.0000  -6.8313   0.0000   0.2276
  11.600   1.2154   0.01822   0.01259   0.0115  0.0202  1.0000  -6.9264   0.0000   0.2273
  11.700   1.2235   0.01844   0.01282   0.0119  0.0200  1.0000  -7.0212   0.0000   0.2268
  11.800   1.2314   0.01867   0.01307   0.0123  0.0197  1.0000  -7.1150   0.0000   0.2264
  11.900   1.2389   0.01894   0.01334   0.0128  0.0195  1.0000  -7.2070   0.0000   0.2260
  12.000   1.2458   0.01924   0.01366   0.0133  0.0192  1.0000  -7.2950   0.0000   0.2255
  12.100   1.2518   0.01962   0.01406   0.0139  0.0189  1.0000  -7.3759   0.0000   0.2248
  12.200   1.2560   0.02012   0.01460   0.0148  0.0186  1.0000  -7.4441   0.0000   0.2240
  12.300   1.2620   0.02047   0.01498   0.0154  0.0184  1.0000  -7.5261   0.0000   0.2234
  12.400   1.2700   0.02067   0.01520   0.0158  0.0183  1.0000  -7.6228   0.0000   0.2231
  12.500   1.2777   0.02088   0.01544   0.0162  0.0182  1.0000  -7.7189   0.0000   0.2226
  12.600   1.2852   0.02110   0.01569   0.0167  0.0180  1.0000  -7.8142   0.0000   0.2222
  12.700   1.2925   0.02134   0.01595   0.0171  0.0179  1.0000  -7.9086   0.0000   0.2218
  12.800   1.2996   0.02158   0.01622   0.0176  0.0177  1.0000  -8.0021   0.0000   0.2213
  12.900   1.3064   0.02183   0.01649   0.0181  0.0175  1.0000  -8.0948   0.0000   0.2208
  13.000   1.3126   0.02209   0.01677   0.0188  0.0173  1.0000  -8.1849   0.0000   0.2203
  13.100   1.3183   0.02235   0.01706   0.0195  0.0171  1.0000  -8.2722   0.0000   0.2196
  13.200   1.3236   0.02262   0.01735   0.0202  0.0170  1.0000  -8.3580   0.0000   0.2190
  13.300   1.3287   0.02291   0.01766   0.0210  0.0168  1.0000  -8.4428   0.0000   0.2183
  13.400   1.3336   0.02321   0.01798   0.0217  0.0167  1.0000  -8.5268   0.0000   0.2176
  13.500   1.3383   0.02353   0.01832   0.0224  0.0165  1.0000  -8.6097   0.0000   0.2170
  13.600   1.3429   0.02386   0.01868   0.0232  0.0164  1.0000  -8.6919   0.0000   0.2163
  13.700   1.3473   0.02422   0.01906   0.0239  0.0162  1.0000  -8.7729   0.0000   0.2157
  13.800   1.3512   0.02460   0.01947   0.0246  0.0161  1.0000  -8.8515   0.0000   0.2150
  13.900   1.3548   0.02503   0.01992   0.0253  0.0160  1.0000  -8.9273   0.0000   0.2143
  14.000   1.3578   0.02549   0.02041   0.0261  0.0158  1.0000  -8.9995   0.0000   0.2137
  14.100   1.3602   0.02602   0.02096   0.0268  0.0157  1.0000  -9.0668   0.0000   0.2130
  14.200   1.3618   0.02661   0.02159   0.0276  0.0156  1.0000  -9.1276   0.0000   0.2123
  14.300   1.3623   0.02730   0.02232   0.0283  0.0154  1.0000  -9.1803   0.0000   0.2115
  14.400   1.3616   0.02812   0.02317   0.0291  0.0153  1.0000  -9.2231   0.0000   0.2108
  14.500   1.3594   0.02907   0.02418   0.0298  0.0152  1.0000  -9.2540   0.0000   0.2100
  14.600   1.3557   0.03021   0.02537   0.0305  0.0150  1.0000  -9.2719   0.0000   0.2092
  14.700   1.3591   0.03079   0.02599   0.0308  0.0150  1.0000  -9.3452   0.0000   0.2089
  14.800   1.3622   0.03140   0.02664   0.0310  0.0149  1.0000  -9.4166   0.0000   0.2086
  14.900   1.3651   0.03207   0.02734   0.0312  0.0149  1.0000  -9.4858   0.0000   0.2083
  15.000   1.3677   0.03277   0.02809   0.0314  0.0148  1.0000  -9.5529   0.0000   0.2080
  15.100   1.3699   0.03353   0.02888   0.0315  0.0148  1.0000  -9.6175   0.0000   0.2077
  15.200   1.3719   0.03433   0.02973   0.0316  0.0147  1.0000  -9.6795   0.0000   0.2075
  15.300   1.3735   0.03519   0.03063   0.0316  0.0146  1.0000  -9.7391   0.0000   0.2073
  15.400   1.3749   0.03611   0.03159   0.0316  0.0146  1.0000  -9.7962   0.0000   0.2071
  15.500   1.3760   0.03708   0.03261   0.0315  0.0145  1.0000  -9.8507   0.0000   0.2070
  15.600   1.3767   0.03812   0.03369   0.0313  0.0144  1.0000  -9.9022   0.0000   0.2069
  15.700   1.3771   0.03922   0.03484   0.0311  0.0144  1.0000  -9.9507   0.0000   0.2069
  15.800   1.3772   0.04039   0.03606   0.0308  0.0143  1.0000  -9.9963   0.0000   0.2068
  15.900   1.3770   0.04163   0.03734   0.0304  0.0143  1.0000  -10.0390   0.0000   0.2069
  16.000   1.3764   0.04295   0.03870   0.0300  0.0142  1.0000  -10.0828   0.0000   0.2070
  16.100   1.3755   0.04433   0.04013   0.0295  0.0141  1.0000  -10.1236   0.0000   0.2071
  16.200   1.3742   0.04579   0.04164   0.0289  0.0141  1.0000  -10.1605   0.0000   0.2072
  16.300   1.3725   0.04733   0.04323   0.0282  0.0140  1.0000  -10.1934   0.0000   0.2074
  16.400   1.3703   0.04896   0.04490   0.0275  0.0140  1.0000  -10.2221   0.0000   0.2077
  16.500   1.3678   0.05067   0.04666   0.0268  0.0139  1.0000  -10.2467   0.0000   0.2080
  16.600   1.3649   0.05247   0.04851   0.0259  0.0139  1.0000  -10.2669   0.0000   0.2083
  16.700   1.3615   0.05435   0.05044   0.0250  0.0138  1.0000  -10.2827   0.0000   0.2087
  16.800   1.3576   0.05631   0.05245   0.0241  0.0138  1.0000  -10.2929   0.0000   0.2091
  16.900   1.3531   0.05837   0.05456   0.0230  0.0137  1.0000  -10.2977   0.0000   0.2095
  17.000   1.3482   0.06053   0.05677   0.0220  0.0137  1.0000  -10.2972   0.0000   0.2100
  17.100   1.3429   0.06278   0.05907   0.0208  0.0137  1.0000  -10.2917   0.0000   0.2106
  17.200   1.3371   0.06511   0.06145   0.0197  0.0136  1.0000  -10.2809   0.0000   0.2111
  17.300   1.3308   0.06753   0.06392   0.0185  0.0136  1.0000  -10.2647   0.0000   0.2117
  17.400   1.3239   0.07003   0.06648   0.0172  0.0136  1.0000  -10.2422   0.0000   0.2124
  17.500   1.3167   0.07263   0.06913   0.0159  0.0136  1.0000  -10.2146   0.0000   0.2130
  17.600   1.3091   0.07532   0.07186   0.0145  0.0135  1.0000  -10.1824   0.0000   0.2138
  17.700   1.3012   0.07807   0.07467   0.0131  0.0135  1.0000  -10.1459   0.0000   0.2145
  17.800   1.2930   0.08090   0.07755   0.0117  0.0135  1.0000  -10.1052   0.0000   0.2154
  17.900   1.2846   0.08379   0.08049   0.0102  0.0135  1.0000  -10.0600   0.0000   0.2162
  18.000   1.2758   0.08673   0.08348   0.0087  0.0135  1.0000  -10.0107   0.0000   0.2171
  18.100   1.2670   0.08973   0.08653   0.0072  0.0135  1.0000  -9.9585   0.0000   0.2180
  18.200   1.2581   0.09277   0.08962   0.0056  0.0134  1.0000  -9.9037   0.0000   0.2190
  18.300   1.2491   0.09585   0.09275   0.0040  0.0134  1.0000  -9.8465   0.0000   0.2200
  18.400   1.2401   0.09895   0.09590   0.0024  0.0134  1.0000  -9.7874   0.0000   0.2211
  18.500   1.2311   0.10207   0.09906   0.0008  0.0134  1.0000  -9.7260   0.0000   0.2221
  18.600   1.2221   0.10519   0.10224  -0.0008  0.0134  1.0000  -9.6632   0.0000   0.2232
  18.700   1.2133   0.10833   0.10542  -0.0024  0.0134  1.0000  -9.5997   0.0000   0.2244
  18.800   1.2045   0.11150   0.10863  -0.0040  0.0134  1.0000  -9.5343   0.0000   0.2255
  18.900   1.1957   0.11470   0.11188  -0.0057  0.0134  1.0000  -9.4668   0.0000   0.2268
  19.000   1.1873   0.11787   0.11509  -0.0074  0.0133  1.0000  -9.4000   0.0000   0.2280
  19.100   1.1790   0.12100   0.11827  -0.0091  0.0133  1.0000  -9.3341   0.0000   0.2293
  19.200   1.1707   0.12416   0.12147  -0.0107  0.0133  1.0000  -9.2653   0.0000   0.2305
  19.300   1.1624   0.12737   0.12472  -0.0125  0.0133  1.0000  -9.1929   0.0000   0.2319
  19.400   1.1545   0.13052   0.12791  -0.0142  0.0133  1.0000  -9.1234   0.0000   0.2333
  19.500   1.1469   0.13366   0.13110  -0.0159  0.0133  1.0000  -9.0539   0.0000   0.2347
  19.600   1.1389   0.13691   0.13439  -0.0177  0.0132  1.0000  -8.9773   0.0000   0.2362
  19.700   1.1315   0.14009   0.13761  -0.0195  0.0132  1.0000  -8.9038   0.0000   0.2376
  19.800   1.1241   0.14329   0.14084  -0.0213  0.0132  1.0000  -8.8286   0.0000   0.2392
  19.900   1.1163   0.14661   0.14420  -0.0232  0.0132  1.0000  -8.7440   0.0000   0.2409
  20.000   1.1090   0.14985   0.14748  -0.0250  0.0131  1.0000  -8.6621   0.0000   0.2425
  20.100   1.1013   0.15320   0.15088  -0.0270  0.0131  1.0000  -8.5723   0.0000   0.2443
  20.200   1.0932   0.15671   0.15442  -0.0290  0.0131  1.0000  -8.4715   0.0000   0.2462
  20.300   1.0854   0.16020   0.15796  -0.0311  0.0130  1.0000  -8.3706   0.0000   0.2481
  20.400   1.0769   0.16393   0.16173  -0.0333  0.0130  1.0000  -8.2535   0.0000   0.2503
  20.500   1.0671   0.16807   0.16592  -0.0358  0.0130  1.0000  -8.1083   0.0000   0.2528
  20.600   1.0554   0.17277   0.17067  -0.0387  0.0130  1.0000  -7.9255   0.0000   0.2558
  20.700   1.0362   0.17955   0.17754  -0.0428  0.0129  1.0000  -7.6014   0.0000   0.2605


