xflr5 v6.47

 Calculated polar for: NACA 0012

 1 1 Reynolds number fixed          Mach number fixed         

 xtrf =   1.000 (top)        1.000 (bottom)
 Mach =   0.000     Re =     2.000 e 6     Ncrit =   9.000

  alpha     CL        CD       CDp       Cm    Top Xtr Bot Xtr   Cpmin    Chinge    XCp    
 ------- -------- --------- --------- -------- ------- ------- -------- --------- ---------
 -23.200  -1.0594   0.22110   0.21966   0.0712  1.0000  0.0088  -7.9056   0.0000   0.2812
 -23.100  -1.0679   0.21655   0.21506   0.0682  1.0000  0.0089  -8.1266   0.0000   0.2778
 -23.000  -1.0731   0.21306   0.21154   0.0658  1.0000  0.0089  -8.2619   0.0000   0.2754
 -22.900  -1.0787   0.20954   0.20798   0.0634  1.0000  0.0090  -8.3987   0.0000   0.2730
 -22.800  -1.0824   0.20660   0.20501   0.0615  1.0000  0.0090  -8.4887   0.0000   0.2711
 -22.700  -1.0857   0.20379   0.20218   0.0596  1.0000  0.0090  -8.5675   0.0000   0.2693
 -22.600  -1.0901   0.20076   0.19912   0.0575  1.0000  0.0091  -8.6626   0.0000   0.2673
 -22.500  -1.0926   0.19826   0.19659   0.0558  1.0000  0.0091  -8.7163   0.0000   0.2658
 -22.400  -1.0961   0.19552   0.19383   0.0540  1.0000  0.0091  -8.7870   0.0000   0.2642
 -22.300  -1.0997   0.19281   0.19109   0.0522  1.0000  0.0091  -8.8542   0.0000   0.2625
 -22.200  -1.1022   0.19037   0.18863   0.0505  1.0000  0.0091  -8.9004   0.0000   0.2611
 -22.100  -1.1065   0.18755   0.18579   0.0487  1.0000  0.0091  -8.9738   0.0000   0.2594
 -22.000  -1.1096   0.18505   0.18326   0.0470  1.0000  0.0091  -9.0230   0.0000   0.2580
 -21.900  -1.1154   0.18191   0.18009   0.0450  1.0000  0.0092  -9.1195   0.0000   0.2561
 -21.800  -1.1230   0.17840   0.17654   0.0427  1.0000  0.0093  -9.2403   0.0000   0.2539
 -21.700  -1.1288   0.17532   0.17343   0.0407  1.0000  0.0094  -9.3287   0.0000   0.2521
 -21.600  -1.1365   0.17184   0.16992   0.0384  1.0000  0.0094  -9.4411   0.0000   0.2501
 -21.500  -1.1430   0.16867   0.16672   0.0364  1.0000  0.0095  -9.5302   0.0000   0.2483
 -21.400  -1.1516   0.16507   0.16309   0.0341  1.0000  0.0095  -9.6472   0.0000   0.2463
 -21.300  -1.1593   0.16173   0.15972   0.0321  1.0000  0.0096  -9.7453   0.0000   0.2445
 -21.200  -1.1690   0.15801   0.15596   0.0298  1.0000  0.0096  -9.8672   0.0000   0.2424
 -21.100  -1.1791   0.15426   0.15218   0.0275  1.0000  0.0096  -9.9907   0.0000   0.2405
 -21.000  -1.1894   0.15054   0.14842   0.0253  1.0000  0.0096  -10.1106   0.0000   0.2386
 -20.900  -1.2012   0.14658   0.14441   0.0230  1.0000  0.0096  -10.2460   0.0000   0.2366
 -20.800  -1.2138   0.14245   0.14024   0.0206  1.0000  0.0096  -10.3880   0.0000   0.2346
 -20.700  -1.2270   0.13826   0.13599   0.0181  1.0000  0.0096  -10.5330   0.0000   0.2326
 -20.600  -1.2408   0.13403   0.13172   0.0157  1.0000  0.0096  -10.6789   0.0000   0.2307
 -20.500  -1.2552   0.12976   0.12740   0.0134  1.0000  0.0096  -10.8271   0.0000   0.2289
 -20.400  -1.2701   0.12545   0.12303   0.0110  1.0000  0.0096  -10.9772   0.0000   0.2271
 -20.300  -1.2855   0.12114   0.11867   0.0087  1.0000  0.0096  -11.1263   0.0000   0.2254
 -20.200  -1.3008   0.11684   0.11432   0.0064  1.0000  0.0095  -11.2712   0.0000   0.2238
 -20.100  -1.3161   0.11260   0.11001   0.0041  1.0000  0.0095  -11.4115   0.0000   0.2222
 -20.000  -1.3314   0.10839   0.10575   0.0019  1.0000  0.0095  -11.5480   0.0000   0.2208
 -19.900  -1.3468   0.10425   0.10155  -0.0002  1.0000  0.0094  -11.6808   0.0000   0.2194
 -19.800  -1.3620   0.10018   0.09742  -0.0023  1.0000  0.0094  -11.8084   0.0000   0.2181
 -19.700  -1.3767   0.09619   0.09338  -0.0043  1.0000  0.0094  -11.9276   0.0000   0.2168
 -19.600  -1.3910   0.09232   0.08945  -0.0063  1.0000  0.0094  -12.0385   0.0000   0.2157
 -19.500  -1.4051   0.08851   0.08558  -0.0082  1.0000  0.0093  -12.1451   0.0000   0.2146
 -19.400  -1.4188   0.08481   0.08182  -0.0101  1.0000  0.0093  -12.2454   0.0000   0.2136
 -19.300  -1.4320   0.08125   0.07820  -0.0119  1.0000  0.0093  -12.3369   0.0000   0.2127
 -19.200  -1.4449   0.07773   0.07462  -0.0137  1.0000  0.0093  -12.4232   0.0000   0.2118
 -19.100  -1.4572   0.07433   0.07116  -0.0154  1.0000  0.0093  -12.5021   0.0000   0.2109
 -19.000  -1.4690   0.07105   0.06782  -0.0171  1.0000  0.0093  -12.5741   0.0000   0.2102
 -18.900  -1.4805   0.06787   0.06458  -0.0187  1.0000  0.0093  -12.6403   0.0000   0.2094
 -18.800  -1.4913   0.06483   0.06148  -0.0202  1.0000  0.0093  -12.6981   0.0000   0.2088
 -18.700  -1.5016   0.06187   0.05847  -0.0217  1.0000  0.0093  -12.7494   0.0000   0.2082
 -18.600  -1.5112   0.05908   0.05561  -0.0231  1.0000  0.0093  -12.7922   0.0000   0.2076
 -18.500  -1.5202   0.05639   0.05287  -0.0244  1.0000  0.0094  -12.8282   0.0000   0.2071
 -18.400  -1.5285   0.05387   0.05029  -0.0256  1.0000  0.0094  -12.8554   0.0000   0.2067
 -18.300  -1.5361   0.05147   0.04783  -0.0267  1.0000  0.0094  -12.8746   0.0000   0.2063
 -18.200  -1.5428   0.04923   0.04553  -0.0277  1.0000  0.0095  -12.8841   0.0000   0.2060
 -18.100  -1.5488   0.04713   0.04338  -0.0286  1.0000  0.0095  -12.8855   0.0000   0.2058
 -18.000  -1.5540   0.04519   0.04138  -0.0294  1.0000  0.0096  -12.8782   0.0000   0.2056
 -17.900  -1.5584   0.04340   0.03954  -0.0300  1.0000  0.0096  -12.8625   0.0000   0.2055
 -17.800  -1.5620   0.04174   0.03784  -0.0306  1.0000  0.0097  -12.8385   0.0000   0.2055
 -17.700  -1.5648   0.04021   0.03627  -0.0310  1.0000  0.0098  -12.8059   0.0000   0.2055
 -17.600  -1.5668   0.03882   0.03483  -0.0314  1.0000  0.0098  -12.7656   0.0000   0.2055
 -17.500  -1.5682   0.03754   0.03351  -0.0317  1.0000  0.0099  -12.7188   0.0000   0.2056
 -17.400  -1.5690   0.03636   0.03230  -0.0318  1.0000  0.0100  -12.6659   0.0000   0.2058
 -17.300  -1.5693   0.03528   0.03118  -0.0319  1.0000  0.0101  -12.6076   0.0000   0.2059
 -17.200  -1.5690   0.03427   0.03014  -0.0320  1.0000  0.0101  -12.5436   0.0000   0.2061
 -17.100  -1.5682   0.03334   0.02918  -0.0319  1.0000  0.0102  -12.4752   0.0000   0.2064
 -17.000  -1.5671   0.03248   0.02829  -0.0319  1.0000  0.0103  -12.4035   0.0000   0.2066
 -16.900  -1.5657   0.03166   0.02745  -0.0317  1.0000  0.0103  -12.3290   0.0000   0.2069
 -16.800  -1.5640   0.03090   0.02665  -0.0315  1.0000  0.0104  -12.2522   0.0000   0.2073
 -16.700  -1.5620   0.03018   0.02590  -0.0313  1.0000  0.0104  -12.1730   0.0000   0.2076
 -16.600  -1.5598   0.02949   0.02519  -0.0310  1.0000  0.0105  -12.0916   0.0000   0.2080
 -16.500  -1.5574   0.02885   0.02452  -0.0307  1.0000  0.0106  -12.0087   0.0000   0.2084
 -16.400  -1.5549   0.02823   0.02388  -0.0304  1.0000  0.0106  -11.9245   0.0000   0.2088
 -16.300  -1.5521   0.02766   0.02328  -0.0300  1.0000  0.0107  -11.8385   0.0000   0.2092
 -16.200  -1.5491   0.02711   0.02271  -0.0296  1.0000  0.0108  -11.7507   0.0000   0.2096
 -16.100  -1.5459   0.02659   0.02216  -0.0291  1.0000  0.0108  -11.6616   0.0000   0.2101
 -16.000  -1.5426   0.02609   0.02164  -0.0286  1.0000  0.0109  -11.5716   0.0000   0.2106
 -15.900  -1.5391   0.02562   0.02115  -0.0281  1.0000  0.0110  -11.4805   0.0000   0.2111
 -15.800  -1.5354   0.02518   0.02067  -0.0276  1.0000  0.0110  -11.3881   0.0000   0.2116
 -15.700  -1.5316   0.02475   0.02022  -0.0270  1.0000  0.0111  -11.2948   0.0000   0.2121
 -15.600  -1.5277   0.02434   0.01979  -0.0264  1.0000  0.0111  -11.2009   0.0000   0.2126
 -15.500  -1.5236   0.02395   0.01938  -0.0258  1.0000  0.0112  -11.1093   0.0000   0.2132
 -15.400  -1.5193   0.02358   0.01898  -0.0252  1.0000  0.0113  -11.0193   0.0000   0.2137
 -15.300  -1.5149   0.02323   0.01861  -0.0246  1.0000  0.0113  -10.9286   0.0000   0.2143
 -15.200  -1.5104   0.02289   0.01825  -0.0239  1.0000  0.0114  -10.8370   0.0000   0.2148
 -15.100  -1.5057   0.02257   0.01790  -0.0233  1.0000  0.0115  -10.7446   0.0000   0.2154
 -15.000  -1.5008   0.02226   0.01757  -0.0226  1.0000  0.0115  -10.6514   0.0000   0.2160
 -14.900  -1.4958   0.02197   0.01726  -0.0219  1.0000  0.0116  -10.5573   0.0000   0.2166
 -14.800  -1.4907   0.02169   0.01696  -0.0212  1.0000  0.0116  -10.4626   0.0000   0.2172
 -14.700  -1.4855   0.02142   0.01667  -0.0205  1.0000  0.0117  -10.3671   0.0000   0.2178
 -14.600  -1.4801   0.02117   0.01640  -0.0198  1.0000  0.0117  -10.2710   0.0000   0.2184
 -14.500  -1.4746   0.02093   0.01614  -0.0191  1.0000  0.0118  -10.1742   0.0000   0.2190
 -14.400  -1.4689   0.02070   0.01589  -0.0184  1.0000  0.0118  -10.0766   0.0000   0.2196
 -14.300  -1.4630   0.02048   0.01565  -0.0177  1.0000  0.0118  -9.9779   0.0000   0.2202
 -14.200  -1.4567   0.02026   0.01542  -0.0170  1.0000  0.0119  -9.8772   0.0000   0.2208
 -14.100  -1.4498   0.02006   0.01519  -0.0165  1.0000  0.0119  -9.7729   0.0000   0.2213
 -14.000  -1.4455   0.01963   0.01473  -0.0157  1.0000  0.0121  -9.6937   0.0000   0.2220
 -13.900  -1.4402   0.01925   0.01432  -0.0150  1.0000  0.0123  -9.6069   0.0000   0.2226
 -13.800  -1.4341   0.01893   0.01397  -0.0143  1.0000  0.0125  -9.5138   0.0000   0.2232
 -13.700  -1.4274   0.01864   0.01366  -0.0138  1.0000  0.0127  -9.4161   0.0000   0.2237
 -13.600  -1.4202   0.01838   0.01339  -0.0133  1.0000  0.0129  -9.3147   0.0000   0.2242
 -13.500  -1.4127   0.01814   0.01314  -0.0129  1.0000  0.0131  -9.2110   0.0000   0.2246
 -13.400  -1.4050   0.01792   0.01291  -0.0124  1.0000  0.0132  -9.1058   0.0000   0.2250
 -13.300  -1.3971   0.01770   0.01268  -0.0120  1.0000  0.0134  -8.9997   0.0000   0.2254
 -13.200  -1.3890   0.01750   0.01247  -0.0117  1.0000  0.0135  -8.8932   0.0000   0.2258
 -13.100  -1.3808   0.01730   0.01226  -0.0113  1.0000  0.0137  -8.7863   0.0000   0.2262
 -13.000  -1.3725   0.01711   0.01205  -0.0109  1.0000  0.0138  -8.6793   0.0000   0.2265
 -12.900  -1.3641   0.01692   0.01186  -0.0106  1.0000  0.0139  -8.5722   0.0000   0.2269
 -12.800  -1.3556   0.01674   0.01167  -0.0103  1.0000  0.0141  -8.4649   0.0000   0.2273
 -12.700  -1.3469   0.01657   0.01148  -0.0099  1.0000  0.0142  -8.3577   0.0000   0.2276
 -12.600  -1.3382   0.01639   0.01129  -0.0096  1.0000  0.0144  -8.2506   0.0000   0.2280
 -12.500  -1.3294   0.01623   0.01111  -0.0093  1.0000  0.0145  -8.1436   0.0000   0.2283
 -12.400  -1.3205   0.01607   0.01094  -0.0090  1.0000  0.0146  -8.0367   0.0000   0.2286
 -12.300  -1.3116   0.01591   0.01077  -0.0088  1.0000  0.0147  -7.9297   0.0000   0.2290
 -12.200  -1.3025   0.01576   0.01061  -0.0085  1.0000  0.0148  -7.8226   0.0000   0.2293
 -12.100  -1.2933   0.01562   0.01046  -0.0082  1.0000  0.0149  -7.7151   0.0000   0.2296
 -12.000  -1.2841   0.01549   0.01031  -0.0080  1.0000  0.0150  -7.6074   0.0000   0.2299
 -11.900  -1.2754   0.01530   0.01011  -0.0076  1.0000  0.0152  -7.5059   0.0000   0.2303
 -11.800  -1.2675   0.01503   0.00982  -0.0072  1.0000  0.0156  -7.4119   0.0000   0.2307
 -11.700  -1.2590   0.01481   0.00959  -0.0068  1.0000  0.0159  -7.3134   0.0000   0.2311
 -11.600  -1.2502   0.01463   0.00941  -0.0065  1.0000  0.0162  -7.2122   0.0000   0.2315
 -11.500  -1.2412   0.01446   0.00924  -0.0062  1.0000  0.0165  -7.1101   0.0000   0.2318
 -11.400  -1.2321   0.01430   0.00907  -0.0059  1.0000  0.0168  -7.0079   0.0000   0.2322
 -11.300  -1.2230   0.01415   0.00892  -0.0056  1.0000  0.0170  -6.9059   0.0000   0.2325
 -11.200  -1.2138   0.01400   0.00876  -0.0053  1.0000  0.0172  -6.8043   0.0000   0.2329
 -11.100  -1.2046   0.01386   0.00862  -0.0050  1.0000  0.0175  -6.7030   0.0000   0.2332
 -11.000  -1.1953   0.01373   0.00848  -0.0048  1.0000  0.0177  -6.6020   0.0000   0.2336
 -10.900  -1.1859   0.01360   0.00834  -0.0045  1.0000  0.0179  -6.5015   0.0000   0.2339
 -10.800  -1.1766   0.01348   0.00821  -0.0042  1.0000  0.0181  -6.4014   0.0000   0.2343
 -10.700  -1.1672   0.01336   0.00808  -0.0039  1.0000  0.0182  -6.3018   0.0000   0.2346
 -10.600  -1.1579   0.01325   0.00796  -0.0036  1.0000  0.0184  -6.2026   0.0000   0.2350
 -10.500  -1.1485   0.01315   0.00785  -0.0033  1.0000  0.0185  -6.1065   0.0000   0.2354
 -10.400  -1.1401   0.01295   0.00764  -0.0029  1.0000  0.0189  -6.0234   0.0000   0.2359
 -10.300  -1.1316   0.01278   0.00746  -0.0024  1.0000  0.0194  -5.9391   0.0000   0.2364
 -10.200  -1.1229   0.01263   0.00731  -0.0020  1.0000  0.0198  -5.8530   0.0000   0.2369
 -10.100  -1.1141   0.01249   0.00718  -0.0016  1.0000  0.0202  -5.7664   0.0000   0.2374
 -10.000  -1.1053   0.01237   0.00705  -0.0012  1.0000  0.0206  -5.6800   0.0000   0.2379
  -9.900  -1.0965   0.01225   0.00693  -0.0007  1.0000  0.0209  -5.5938   0.0000   0.2384
  -9.800  -1.0876   0.01213   0.00682  -0.0003  1.0000  0.0212  -5.5080   0.0000   0.2389
  -9.700  -1.0787   0.01203   0.00671   0.0001  1.0000  0.0216  -5.4226   0.0000   0.2394
  -9.600  -1.0698   0.01193   0.00660   0.0005  1.0000  0.0218  -5.3375   0.0000   0.2399
  -9.500  -1.0609   0.01184   0.00650   0.0009  1.0000  0.0221  -5.2528   0.0000   0.2404
  -9.400  -1.0520   0.01175   0.00640   0.0014  1.0000  0.0222  -5.1685   0.0000   0.2410
  -9.300  -1.0437   0.01161   0.00626   0.0019  1.0000  0.0228  -5.0895   0.0000   0.2416
  -9.200  -1.0355   0.01147   0.00612   0.0024  1.0000  0.0235  -5.0104   0.0000   0.2423
  -9.100  -1.0271   0.01135   0.00601   0.0030  1.0000  0.0241  -4.9303   0.0000   0.2429
  -9.000  -1.0187   0.01124   0.00590   0.0035  1.0000  0.0246  -4.8503   0.0000   0.2436
  -8.900  -1.0102   0.01114   0.00580   0.0040  1.0000  0.0251  -4.7706   0.0000   0.2442
  -8.800  -1.0017   0.01105   0.00571   0.0045  1.0000  0.0256  -4.6911   0.0000   0.2449
  -8.700  -0.9931   0.01096   0.00562   0.0050  1.0000  0.0260  -4.6120   0.0000   0.2455
  -8.600  -0.9845   0.01089   0.00553   0.0055  1.0000  0.0263  -4.5332   0.0000   0.2462
  -8.500  -0.9762   0.01078   0.00543   0.0061  1.0000  0.0268  -4.4569   0.0000   0.2469
  -8.400  -0.9657   0.01065   0.00530   0.0061  0.9998  0.0277  -4.3734   0.0000   0.2472
  -8.300  -0.9529   0.01052   0.00518   0.0057  0.9995  0.0286  -4.2801   0.0000   0.2469
  -8.200  -0.9399   0.01041   0.00508   0.0052  0.9991  0.0294  -4.1872   0.0000   0.2466
  -8.100  -0.9268   0.01031   0.00498   0.0048  0.9988  0.0301  -4.0944   0.0000   0.2463
  -8.000  -0.9136   0.01022   0.00489   0.0043  0.9984  0.0307  -4.0020   0.0000   0.2460
  -7.900  -0.9005   0.01011   0.00478   0.0038  0.9981  0.0317  -3.9116   0.0000   0.2456
  -7.800  -0.8875   0.00998   0.00467   0.0033  0.9977  0.0329  -3.8281   0.0000   0.2452
  -7.700  -0.8743   0.00987   0.00456   0.0028  0.9974  0.0340  -3.7450   0.0000   0.2448
  -7.600  -0.8614   0.00977   0.00447   0.0024  0.9969  0.0350  -3.6632   0.0000   0.2445
  -7.500  -0.8484   0.00969   0.00439   0.0020  0.9963  0.0358  -3.5815   0.0000   0.2441
  -7.400  -0.8355   0.00956   0.00428   0.0015  0.9958  0.0375  -3.5018   0.0000   0.2437
  -7.300  -0.8225   0.00945   0.00418   0.0011  0.9952  0.0390  -3.4216   0.0000   0.2433
  -7.200  -0.8093   0.00936   0.00409   0.0006  0.9947  0.0403  -3.3415   0.0000   0.2428
  -7.100  -0.7960   0.00927   0.00400   0.0001  0.9943  0.0417  -3.2621   0.0000   0.2423
  -7.000  -0.7828   0.00915   0.00391  -0.0004  0.9939  0.0436  -3.1835   0.0000   0.2417
  -6.900  -0.7694   0.00905   0.00382  -0.0009  0.9935  0.0452  -3.1049   0.0000   0.2411
  -6.800  -0.7558   0.00896   0.00374  -0.0015  0.9931  0.0467  -3.0267   0.0000   0.2404
  -6.700  -0.7428   0.00885   0.00364  -0.0019  0.9925  0.0490  -2.9509   0.0000   0.2399
  -6.600  -0.7301   0.00876   0.00356  -0.0023  0.9916  0.0510  -2.8765   0.0000   0.2394
  -6.500  -0.7171   0.00866   0.00348  -0.0027  0.9909  0.0531  -2.8019   0.0000   0.2388
  -6.400  -0.7041   0.00855   0.00339  -0.0032  0.9901  0.0559  -2.7287   0.0000   0.2382
  -6.300  -0.6910   0.00847   0.00332  -0.0036  0.9893  0.0582  -2.6608   0.0000   0.2376
  -6.200  -0.6782   0.00835   0.00323  -0.0040  0.9884  0.0615  -2.5943   0.0000   0.2370
  -6.100  -0.6651   0.00827   0.00315  -0.0045  0.9876  0.0642  -2.5276   0.0000   0.2363
  -6.000  -0.6529   0.00816   0.00307  -0.0047  0.9863  0.0675  -2.4640   0.0000   0.2358
  -5.900  -0.6413   0.00808   0.00300  -0.0048  0.9843  0.0705  -2.4024   0.0000   0.2356
  -5.800  -0.6294   0.00798   0.00293  -0.0050  0.9825  0.0739  -2.3406   0.0000   0.2353
  -5.700  -0.6173   0.00790   0.00286  -0.0052  0.9810  0.0775  -2.2786   0.0000   0.2348
  -5.600  -0.6059   0.00780   0.00278  -0.0053  0.9789  0.0817  -2.2191   0.0000   0.2346
  -5.400  -0.5838   0.00762   0.00265  -0.0052  0.9738  0.0906  -2.1035   0.0000   0.2346
  -5.300  -0.5728   0.00753   0.00258  -0.0051  0.9712  0.0952  -2.0480   0.0000   0.2346
  -5.200  -0.5623   0.00745   0.00252  -0.0050  0.9678  0.0999  -1.9969   0.0000   0.2347
  -5.100  -0.5516   0.00736   0.00245  -0.0049  0.9649  0.1049  -1.9459   0.0000   0.2348
  -5.000  -0.5410   0.00728   0.00239  -0.0047  0.9614  0.1098  -1.8956   0.0000   0.2350
  -4.900  -0.5306   0.00719   0.00233  -0.0045  0.9577  0.1159  -1.8461   0.0000   0.2353
  -4.800  -0.5202   0.00710   0.00226  -0.0043  0.9543  0.1223  -1.7970   0.0000   0.2355
  -4.700  -0.5098   0.00702   0.00220  -0.0042  0.9500  0.1286  -1.7483   0.0000   0.2358
  -4.500  -0.4889   0.00686   0.00209  -0.0038  0.9417  0.1419  -1.6519   0.0000   0.2363
  -4.400  -0.4785   0.00678   0.00202  -0.0036  0.9371  0.1488  -1.6077   0.0000   0.2366
  -4.300  -0.4680   0.00670   0.00197  -0.0034  0.9326  0.1563  -1.5640   0.0000   0.2369
  -4.200  -0.4575   0.00663   0.00191  -0.0033  0.9275  0.1643  -1.5206   0.0000   0.2371
  -4.100  -0.4470   0.00655   0.00186  -0.0031  0.9227  0.1726  -1.4775   0.0000   0.2374
  -4.000  -0.4365   0.00648   0.00181  -0.0030  0.9172  0.1807  -1.4348   0.0000   0.2376
  -3.900  -0.4259   0.00640   0.00175  -0.0028  0.9119  0.1890  -1.3923   0.0000   0.2379
  -3.800  -0.4153   0.00633   0.00170  -0.0027  0.9060  0.1979  -1.3516   0.0000   0.2381
  -3.700  -0.4047   0.00627   0.00166  -0.0025  0.9003  0.2069  -1.3129   0.0000   0.2383
  -3.500  -0.3833   0.00614   0.00156  -0.0023  0.8879  0.2252  -1.2361   0.0000   0.2387
  -3.400  -0.3726   0.00607   0.00152  -0.0021  0.8811  0.2348  -1.1981   0.0000   0.2389
  -3.300  -0.3619   0.00601   0.00147  -0.0020  0.8745  0.2445  -1.1616   0.0000   0.2391
  -3.200  -0.3512   0.00595   0.00143  -0.0019  0.8674  0.2539  -1.1269   0.0000   0.2393
  -3.100  -0.3404   0.00590   0.00139  -0.0018  0.8604  0.2636  -1.0922   0.0000   0.2395
  -2.900  -0.3188   0.00580   0.00132  -0.0016  0.8453  0.2836  -1.0247   0.0000   0.2398
  -2.800  -0.3080   0.00575   0.00128  -0.0015  0.8378  0.2938  -0.9933   0.0000   0.2400
  -2.700  -0.2972   0.00570   0.00125  -0.0014  0.8296  0.3036  -0.9621   0.0000   0.2402
  -2.600  -0.2863   0.00566   0.00121  -0.0013  0.8217  0.3136  -0.9310   0.0000   0.2403
  -2.500  -0.2754   0.00562   0.00118  -0.0012  0.8134  0.3237  -0.9020   0.0000   0.2405
  -2.400  -0.2645   0.00558   0.00115  -0.0012  0.8048  0.3339  -0.8734   0.0000   0.2406
  -2.300  -0.2536   0.00554   0.00113  -0.0011  0.7964  0.3444  -0.8451   0.0000   0.2408
  -2.200  -0.2428   0.00551   0.00110  -0.0010  0.7876  0.3543  -0.8187   0.0000   0.2409
  -2.100  -0.2318   0.00547   0.00108  -0.0010  0.7787  0.3644  -0.7924   0.0000   0.2410
  -2.000  -0.2208   0.00545   0.00105  -0.0009  0.7699  0.3746  -0.7671   0.0000   0.2411
  -1.900  -0.2099   0.00541   0.00103  -0.0008  0.7606  0.3852  -0.7428   0.0000   0.2413
  -1.800  -0.1989   0.00538   0.00101  -0.0008  0.7515  0.3954  -0.7190   0.0000   0.2414
  -1.700  -0.1879   0.00536   0.00099  -0.0007  0.7424  0.4053  -0.6964   0.0000   0.2415
  -1.500  -0.1659   0.00531   0.00095  -0.0006  0.7235  0.4261  -0.6531   0.0000   0.2417
  -1.400  -0.1550   0.00529   0.00094  -0.0005  0.7141  0.4362  -0.6327   0.0000   0.2418
  -1.300  -0.1439   0.00527   0.00092  -0.0005  0.7043  0.4461  -0.6130   0.0000   0.2419
  -1.200  -0.1328   0.00526   0.00091  -0.0005  0.6948  0.4564  -0.5940   0.0000   0.2419
  -1.100  -0.1218   0.00524   0.00089  -0.0004  0.6853  0.4668  -0.5757   0.0000   0.2421
  -1.000  -0.1108   0.00522   0.00088  -0.0004  0.6753  0.4767  -0.5582   0.0000   0.2421
  -0.900  -0.0997   0.00521   0.00087  -0.0003  0.6658  0.4867  -0.5413   0.0000   0.2421
  -0.800  -0.0887   0.00520   0.00086  -0.0003  0.6561  0.4971  -0.5249   0.0000   0.2422
  -0.700  -0.0776   0.00519   0.00086  -0.0002  0.6460  0.5071  -0.5093   0.0000   0.2423
  -0.600  -0.0665   0.00518   0.00085  -0.0002  0.6364  0.5169  -0.4942   0.0000   0.2423
  -0.500  -0.0554   0.00518   0.00084  -0.0002  0.6267  0.5271  -0.4795   0.0000   0.2423
  -0.400  -0.0444   0.00517   0.00084  -0.0001  0.6166  0.5373  -0.4655   0.0000   0.2425
  -0.300  -0.0333   0.00516   0.00084  -0.0001  0.6068  0.5470  -0.4518   0.0000   0.2424
  -0.100  -0.0111   0.00516   0.00083  -0.0000  0.5868  0.5673  -0.4259   0.0000   0.2429
   0.000   0.0000   0.00515   0.00083  -0.0000  0.5770  0.5770  -0.4135   0.0000   0.4530
   0.100   0.0111   0.00516   0.00083   0.0000  0.5672  0.5868  -0.4259   0.0000   0.2429
   0.300   0.0333   0.00516   0.00084   0.0001  0.5470  0.6068  -0.4518   0.0000   0.2424
   0.400   0.0444   0.00517   0.00084   0.0001  0.5373  0.6166  -0.4655   0.0000   0.2425
   0.500   0.0554   0.00518   0.00084   0.0002  0.5271  0.6266  -0.4795   0.0000   0.2423
   0.600   0.0665   0.00518   0.00085   0.0002  0.5169  0.6364  -0.4942   0.0000   0.2423
   0.700   0.0776   0.00519   0.00086   0.0002  0.5071  0.6460  -0.5093   0.0000   0.2423
   0.800   0.0887   0.00520   0.00086   0.0003  0.4971  0.6561  -0.5249   0.0000   0.2422
   0.900   0.0997   0.00521   0.00087   0.0003  0.4867  0.6658  -0.5413   0.0000   0.2421
   1.000   0.1108   0.00522   0.00088   0.0004  0.4767  0.6753  -0.5582   0.0000   0.2421
   1.100   0.1218   0.00524   0.00089   0.0004  0.4668  0.6853  -0.5757   0.0000   0.2421
   1.200   0.1328   0.00526   0.00091   0.0005  0.4564  0.6948  -0.5940   0.0000   0.2419
   1.300   0.1439   0.00527   0.00092   0.0005  0.4461  0.7043  -0.6130   0.0000   0.2419
   1.400   0.1550   0.00529   0.00094   0.0005  0.4362  0.7141  -0.6327   0.0000   0.2418
   1.500   0.1659   0.00531   0.00095   0.0006  0.4261  0.7235  -0.6531   0.0000   0.2417
   1.700   0.1880   0.00536   0.00099   0.0007  0.4053  0.7424  -0.6964   0.0000   0.2415
   1.800   0.1989   0.00538   0.00101   0.0008  0.3954  0.7515  -0.7190   0.0000   0.2414
   1.900   0.2099   0.00541   0.00103   0.0008  0.3852  0.7606  -0.7428   0.0000   0.2413
   2.000   0.2208   0.00545   0.00105   0.0009  0.3746  0.7699  -0.7671   0.0000   0.2411
   2.100   0.2318   0.00547   0.00108   0.0010  0.3644  0.7787  -0.7924   0.0000   0.2410
   2.200   0.2428   0.00551   0.00110   0.0010  0.3543  0.7876  -0.8187   0.0000   0.2409
   2.300   0.2536   0.00554   0.00113   0.0011  0.3444  0.7964  -0.8451   0.0000   0.2408
   2.400   0.2645   0.00558   0.00115   0.0012  0.3339  0.8048  -0.8734   0.0000   0.2406
   2.500   0.2754   0.00562   0.00118   0.0012  0.3237  0.8134  -0.9020   0.0000   0.2405
   2.600   0.2863   0.00566   0.00121   0.0013  0.3136  0.8217  -0.9310   0.0000   0.2403
   2.700   0.2972   0.00570   0.00125   0.0014  0.3036  0.8296  -0.9621   0.0000   0.2402
   2.800   0.3080   0.00575   0.00128   0.0015  0.2938  0.8378  -0.9933   0.0000   0.2400
   2.900   0.3188   0.00580   0.00132   0.0016  0.2836  0.8453  -1.0247   0.0000   0.2398
   3.100   0.3404   0.00590   0.00139   0.0018  0.2636  0.8604  -1.0923   0.0000   0.2395
   3.200   0.3512   0.00595   0.00143   0.0019  0.2539  0.8674  -1.1269   0.0000   0.2393
   3.300   0.3619   0.00601   0.00147   0.0020  0.2445  0.8745  -1.1616   0.0000   0.2391
   3.400   0.3726   0.00607   0.00152   0.0021  0.2348  0.8811  -1.1982   0.0000   0.2389
   3.500   0.3833   0.00614   0.00156   0.0023  0.2252  0.8879  -1.2361   0.0000   0.2387
   3.700   0.4047   0.00627   0.00166   0.0025  0.2069  0.9003  -1.3129   0.0000   0.2383
   3.800   0.4153   0.00633   0.00170   0.0027  0.1979  0.9060  -1.3516   0.0000   0.2381
   3.900   0.4259   0.00640   0.00175   0.0028  0.1890  0.9119  -1.3924   0.0000   0.2379
   4.000   0.4365   0.00648   0.00181   0.0029  0.1807  0.9172  -1.4348   0.0000   0.2376
   4.100   0.4470   0.00655   0.00186   0.0031  0.1726  0.9227  -1.4776   0.0000   0.2374
   4.200   0.4575   0.00663   0.00191   0.0033  0.1643  0.9275  -1.5206   0.0000   0.2371
   4.300   0.4681   0.00670   0.00197   0.0034  0.1563  0.9326  -1.5640   0.0000   0.2369
   4.400   0.4786   0.00678   0.00202   0.0036  0.1488  0.9371  -1.6077   0.0000   0.2366
   4.500   0.4890   0.00686   0.00209   0.0038  0.1419  0.9417  -1.6520   0.0000   0.2363
   4.700   0.5098   0.00702   0.00220   0.0042  0.1286  0.9500  -1.7483   0.0000   0.2358
   4.800   0.5203   0.00710   0.00226   0.0043  0.1223  0.9543  -1.7971   0.0000   0.2356
   4.900   0.5307   0.00719   0.00233   0.0045  0.1159  0.9577  -1.8462   0.0000   0.2353
   5.000   0.5410   0.00728   0.00239   0.0047  0.1098  0.9614  -1.8956   0.0000   0.2350
   5.100   0.5516   0.00736   0.00245   0.0049  0.1049  0.9649  -1.9459   0.0000   0.2349
   5.200   0.5623   0.00745   0.00252   0.0050  0.0999  0.9678  -1.9970   0.0000   0.2347
   5.300   0.5728   0.00753   0.00258   0.0051  0.0952  0.9712  -2.0480   0.0000   0.2346
   5.400   0.5838   0.00762   0.00265   0.0052  0.0906  0.9738  -2.1035   0.0000   0.2346
   5.600   0.6059   0.00780   0.00278   0.0053  0.0817  0.9789  -2.2192   0.0000   0.2347
   5.700   0.6173   0.00790   0.00286   0.0052  0.0775  0.9810  -2.2786   0.0000   0.2348
   5.800   0.6295   0.00798   0.00293   0.0050  0.0739  0.9825  -2.3407   0.0000   0.2353
   5.900   0.6414   0.00808   0.00300   0.0048  0.0705  0.9843  -2.4025   0.0000   0.2356
   6.000   0.6529   0.00816   0.00307   0.0047  0.0675  0.9863  -2.4640   0.0000   0.2358
   6.100   0.6651   0.00827   0.00315   0.0045  0.0642  0.9876  -2.5277   0.0000   0.2363
   6.200   0.6782   0.00835   0.00323   0.0040  0.0615  0.9884  -2.5944   0.0000   0.2370
   6.300   0.6911   0.00847   0.00332   0.0036  0.0582  0.9893  -2.6609   0.0000   0.2376
   6.400   0.7041   0.00855   0.00339   0.0032  0.0559  0.9901  -2.7287   0.0000   0.2382
   6.500   0.7171   0.00866   0.00348   0.0027  0.0531  0.9909  -2.8019   0.0000   0.2388
   6.600   0.7301   0.00876   0.00356   0.0023  0.0510  0.9916  -2.8765   0.0000   0.2394
   6.700   0.7429   0.00885   0.00364   0.0019  0.0490  0.9925  -2.9509   0.0000   0.2399
   6.800   0.7559   0.00896   0.00374   0.0015  0.0467  0.9931  -3.0268   0.0000   0.2405
   6.900   0.7694   0.00905   0.00382   0.0009  0.0452  0.9935  -3.1051   0.0000   0.2411
   7.000   0.7828   0.00915   0.00391   0.0004  0.0435  0.9939  -3.1837   0.0000   0.2417
   7.100   0.7961   0.00926   0.00400  -0.0001  0.0417  0.9943  -3.2622   0.0000   0.2423
   7.200   0.8093   0.00936   0.00409  -0.0006  0.0403  0.9947  -3.3416   0.0000   0.2428
   7.300   0.8226   0.00945   0.00418  -0.0011  0.0390  0.9952  -3.4218   0.0000   0.2433
   7.400   0.8356   0.00956   0.00428  -0.0015  0.0375  0.9958  -3.5019   0.0000   0.2437
   7.500   0.8484   0.00969   0.00439  -0.0020  0.0358  0.9963  -3.5816   0.0000   0.2441
   7.600   0.8615   0.00977   0.00447  -0.0024  0.0350  0.9969  -3.6634   0.0000   0.2445
   7.700   0.8744   0.00987   0.00456  -0.0028  0.0340  0.9974  -3.7451   0.0000   0.2448
   7.800   0.8875   0.00998   0.00467  -0.0033  0.0329  0.9977  -3.8282   0.0000   0.2452
   7.900   0.9006   0.01011   0.00478  -0.0038  0.0317  0.9981  -3.9117   0.0000   0.2456
   8.000   0.9137   0.01022   0.00489  -0.0043  0.0307  0.9984  -4.0022   0.0000   0.2460
   8.100   0.9268   0.01031   0.00498  -0.0048  0.0301  0.9988  -4.0946   0.0000   0.2463
   8.200   0.9399   0.01041   0.00508  -0.0052  0.0294  0.9991  -4.1874   0.0000   0.2466
   8.300   0.9529   0.01052   0.00518  -0.0057  0.0286  0.9995  -4.2804   0.0000   0.2469
   8.400   0.9658   0.01065   0.00530  -0.0061  0.0277  0.9999  -4.3736   0.0000   0.2472
   8.500   0.9761   0.01078   0.00542  -0.0060  0.0268  1.0000  -4.4565   0.0000   0.2469
   8.600   0.9844   0.01088   0.00553  -0.0055  0.0263  1.0000  -4.5329   0.0000   0.2462
   8.700   0.9930   0.01096   0.00562  -0.0050  0.0260  1.0000  -4.6117   0.0000   0.2455
   8.800   1.0016   0.01105   0.00571  -0.0045  0.0256  1.0000  -4.6908   0.0000   0.2449
   8.900   1.0101   0.01114   0.00580  -0.0040  0.0251  1.0000  -4.7702   0.0000   0.2442
   9.000   1.0186   0.01124   0.00590  -0.0035  0.0246  1.0000  -4.8500   0.0000   0.2435
   9.100   1.0270   0.01135   0.00601  -0.0029  0.0241  1.0000  -4.9300   0.0000   0.2429
   9.200   1.0354   0.01147   0.00612  -0.0024  0.0235  1.0000  -5.0102   0.0000   0.2422
   9.300   1.0436   0.01161   0.00626  -0.0019  0.0228  1.0000  -5.0893   0.0000   0.2416
   9.400   1.0519   0.01175   0.00640  -0.0013  0.0222  1.0000  -5.1682   0.0000   0.2409
   9.500   1.0608   0.01184   0.00650  -0.0009  0.0221  1.0000  -5.2526   0.0000   0.2404
   9.600   1.0697   0.01193   0.00660  -0.0005  0.0218  1.0000  -5.3373   0.0000   0.2399
   9.700   1.0787   0.01203   0.00671  -0.0001  0.0216  1.0000  -5.4224   0.0000   0.2394
   9.800   1.0876   0.01213   0.00682   0.0003  0.0212  1.0000  -5.5079   0.0000   0.2389
   9.900   1.0965   0.01225   0.00693   0.0007  0.0209  1.0000  -5.5937   0.0000   0.2384
  10.000   1.1053   0.01237   0.00705   0.0012  0.0206  1.0000  -5.6799   0.0000   0.2379
  10.100   1.1141   0.01249   0.00718   0.0016  0.0202  1.0000  -5.7663   0.0000   0.2374
  10.200   1.1229   0.01263   0.00731   0.0020  0.0198  1.0000  -5.8529   0.0000   0.2369
  10.300   1.1316   0.01278   0.00746   0.0024  0.0194  1.0000  -5.9391   0.0000   0.2364
  10.400   1.1401   0.01295   0.00764   0.0029  0.0189  1.0000  -6.0235   0.0000   0.2359
  10.500   1.1485   0.01315   0.00785   0.0033  0.0185  1.0000  -6.1066   0.0000   0.2354
  10.600   1.1579   0.01325   0.00796   0.0036  0.0184  1.0000  -6.2027   0.0000   0.2350
  10.700   1.1673   0.01336   0.00808   0.0039  0.0182  1.0000  -6.3019   0.0000   0.2346
  10.800   1.1766   0.01348   0.00821   0.0042  0.0181  1.0000  -6.4016   0.0000   0.2343
  10.900   1.1860   0.01360   0.00834   0.0045  0.0179  1.0000  -6.5017   0.0000   0.2339
  11.000   1.1953   0.01373   0.00848   0.0047  0.0177  1.0000  -6.6023   0.0000   0.2336
  11.100   1.2046   0.01386   0.00862   0.0050  0.0175  1.0000  -6.7033   0.0000   0.2332
  11.200   1.2139   0.01400   0.00876   0.0053  0.0172  1.0000  -6.8047   0.0000   0.2329
  11.300   1.2231   0.01415   0.00891   0.0056  0.0170  1.0000  -6.9063   0.0000   0.2326
  11.400   1.2322   0.01430   0.00907   0.0059  0.0167  1.0000  -7.0083   0.0000   0.2322
  11.500   1.2413   0.01446   0.00923   0.0062  0.0165  1.0000  -7.1106   0.0000   0.2319
  11.600   1.2503   0.01463   0.00941   0.0065  0.0162  1.0000  -7.2127   0.0000   0.2315
  11.700   1.2591   0.01481   0.00959   0.0068  0.0159  1.0000  -7.3140   0.0000   0.2311
  11.800   1.2676   0.01503   0.00982   0.0072  0.0156  1.0000  -7.4125   0.0000   0.2307
  11.900   1.2755   0.01530   0.01011   0.0076  0.0152  1.0000  -7.5064   0.0000   0.2303
  12.000   1.2842   0.01549   0.01031   0.0079  0.0150  1.0000  -7.6081   0.0000   0.2299
  12.100   1.2935   0.01562   0.01046   0.0082  0.0149  1.0000  -7.7158   0.0000   0.2296
  12.200   1.3027   0.01576   0.01061   0.0085  0.0148  1.0000  -7.8233   0.0000   0.2293
  12.300   1.3117   0.01591   0.01077   0.0087  0.0147  1.0000  -7.9305   0.0000   0.2290
  12.400   1.3207   0.01607   0.01094   0.0090  0.0146  1.0000  -8.0375   0.0000   0.2287
  12.500   1.3296   0.01623   0.01111   0.0093  0.0145  1.0000  -8.1445   0.0000   0.2283
  12.600   1.3384   0.01639   0.01129   0.0096  0.0144  1.0000  -8.2516   0.0000   0.2280
  12.700   1.3471   0.01657   0.01148   0.0099  0.0142  1.0000  -8.3587   0.0000   0.2276
  12.800   1.3557   0.01674   0.01166   0.0102  0.0141  1.0000  -8.4660   0.0000   0.2273
  12.900   1.3643   0.01692   0.01186   0.0106  0.0139  1.0000  -8.5733   0.0000   0.2269
  13.000   1.3727   0.01711   0.01205   0.0109  0.0138  1.0000  -8.6805   0.0000   0.2266
  13.100   1.3810   0.01730   0.01226   0.0112  0.0137  1.0000  -8.7875   0.0000   0.2262
  13.200   1.3893   0.01750   0.01247   0.0116  0.0135  1.0000  -8.8944   0.0000   0.2258
  13.300   1.3973   0.01770   0.01268   0.0120  0.0134  1.0000  -9.0011   0.0000   0.2254
  13.400   1.4053   0.01792   0.01291   0.0124  0.0132  1.0000  -9.1072   0.0000   0.2250
  13.500   1.4130   0.01814   0.01314   0.0128  0.0131  1.0000  -9.2124   0.0000   0.2246
  13.600   1.4205   0.01838   0.01339   0.0132  0.0129  1.0000  -9.3163   0.0000   0.2242
  13.700   1.4277   0.01864   0.01366   0.0137  0.0127  1.0000  -9.4177   0.0000   0.2237
  13.800   1.4344   0.01893   0.01397   0.0143  0.0125  1.0000  -9.5155   0.0000   0.2232
  13.900   1.4405   0.01925   0.01432   0.0149  0.0123  1.0000  -9.6086   0.0000   0.2227
  14.000   1.4458   0.01963   0.01473   0.0156  0.0121  1.0000  -9.6954   0.0000   0.2221
  14.100   1.4502   0.02005   0.01519   0.0164  0.0119  1.0000  -9.7752   0.0000   0.2213
  14.200   1.4572   0.02026   0.01542   0.0169  0.0119  1.0000  -9.8799   0.0000   0.2209
  14.300   1.4635   0.02048   0.01565   0.0176  0.0118  1.0000  -9.9808   0.0000   0.2203
  14.400   1.4694   0.02070   0.01589   0.0183  0.0118  1.0000  -10.0798   0.0000   0.2197
  14.500   1.4751   0.02093   0.01614   0.0190  0.0118  1.0000  -10.1775   0.0000   0.2191
  14.600   1.4807   0.02117   0.01640   0.0197  0.0117  1.0000  -10.2745   0.0000   0.2185
  14.700   1.4861   0.02142   0.01667   0.0204  0.0117  1.0000  -10.3707   0.0000   0.2179
  14.800   1.4913   0.02169   0.01696   0.0211  0.0116  1.0000  -10.4664   0.0000   0.2173
  14.900   1.4965   0.02197   0.01726   0.0218  0.0116  1.0000  -10.5613   0.0000   0.2167
  15.000   1.5015   0.02226   0.01757   0.0225  0.0115  1.0000  -10.6555   0.0000   0.2161
  15.100   1.5064   0.02256   0.01790   0.0231  0.0115  1.0000  -10.7489   0.0000   0.2155
  15.200   1.5111   0.02289   0.01824   0.0238  0.0114  1.0000  -10.8415   0.0000   0.2149
  15.300   1.5157   0.02322   0.01860   0.0245  0.0113  1.0000  -10.9333   0.0000   0.2144
  15.400   1.5201   0.02357   0.01898   0.0251  0.0113  1.0000  -11.0242   0.0000   0.2138
  15.500   1.5244   0.02394   0.01937   0.0257  0.0112  1.0000  -11.1144   0.0000   0.2133
  15.600   1.5285   0.02433   0.01978   0.0263  0.0111  1.0000  -11.2066   0.0000   0.2127
  15.700   1.5325   0.02474   0.02021   0.0269  0.0111  1.0000  -11.3008   0.0000   0.2122
  15.800   1.5363   0.02517   0.02066   0.0274  0.0110  1.0000  -11.3944   0.0000   0.2117
  15.900   1.5400   0.02561   0.02113   0.0280  0.0109  1.0000  -11.4871   0.0000   0.2112
  16.000   1.5436   0.02608   0.02163   0.0285  0.0109  1.0000  -11.5785   0.0000   0.2107
  16.100   1.5469   0.02657   0.02214   0.0290  0.0108  1.0000  -11.6688   0.0000   0.2102
  16.200   1.5501   0.02709   0.02269   0.0294  0.0108  1.0000  -11.7582   0.0000   0.2098
  16.300   1.5532   0.02764   0.02326   0.0298  0.0107  1.0000  -11.8464   0.0000   0.2093
  16.400   1.5560   0.02821   0.02386   0.0302  0.0106  1.0000  -11.9327   0.0000   0.2089
  16.500   1.5586   0.02882   0.02449   0.0306  0.0106  1.0000  -12.0172   0.0000   0.2085
  16.600   1.5611   0.02947   0.02517   0.0309  0.0105  1.0000  -12.1004   0.0000   0.2081
  16.700   1.5633   0.03015   0.02587   0.0311  0.0104  1.0000  -12.1822   0.0000   0.2077
  16.800   1.5653   0.03087   0.02662   0.0314  0.0104  1.0000  -12.2619   0.0000   0.2074
  16.900   1.5671   0.03163   0.02741   0.0315  0.0103  1.0000  -12.3392   0.0000   0.2071
  17.000   1.5685   0.03244   0.02825   0.0317  0.0102  1.0000  -12.4140   0.0000   0.2068
  17.100   1.5697   0.03330   0.02914   0.0317  0.0102  1.0000  -12.4860   0.0000   0.2065
  17.200   1.5705   0.03423   0.03010   0.0318  0.0101  1.0000  -12.5547   0.0000   0.2063
  17.300   1.5709   0.03523   0.03113   0.0317  0.0100  1.0000  -12.6190   0.0000   0.2061
  17.400   1.5706   0.03631   0.03225   0.0316  0.0100  1.0000  -12.6776   0.0000   0.2059
  17.500   1.5698   0.03749   0.03346   0.0314  0.0099  1.0000  -12.7306   0.0000   0.2058
  17.600   1.5684   0.03877   0.03478   0.0312  0.0098  1.0000  -12.7775   0.0000   0.2057
  17.700   1.5664   0.04017   0.03622   0.0308  0.0098  1.0000  -12.8178   0.0000   0.2056
  17.800   1.5636   0.04170   0.03779   0.0304  0.0097  1.0000  -12.8504   0.0000   0.2056
  17.900   1.5600   0.04336   0.03950   0.0298  0.0096  1.0000  -12.8744   0.0000   0.2057
  18.000   1.5556   0.04516   0.04135   0.0291  0.0096  1.0000  -12.8899   0.0000   0.2058
  18.100   1.5504   0.04711   0.04335   0.0283  0.0095  1.0000  -12.8970   0.0000   0.2060
  18.200   1.5444   0.04921   0.04551   0.0274  0.0095  1.0000  -12.8953   0.0000   0.2062
  18.300   1.5377   0.05146   0.04782   0.0264  0.0094  1.0000  -12.8855   0.0000   0.2065
  18.400   1.5302   0.05387   0.05029   0.0253  0.0094  1.0000  -12.8661   0.0000   0.2069
  18.500   1.5218   0.05640   0.05288   0.0241  0.0093  1.0000  -12.8386   0.0000   0.2073
  18.600   1.5128   0.05909   0.05563   0.0227  0.0093  1.0000  -12.8022   0.0000   0.2078
  18.700   1.5032   0.06190   0.05849   0.0213  0.0093  1.0000  -12.7590   0.0000   0.2084
  18.800   1.4929   0.06486   0.06152   0.0198  0.0093  1.0000  -12.7075   0.0000   0.2090
  18.900   1.4821   0.06791   0.06463   0.0183  0.0093  1.0000  -12.6495   0.0000   0.2097
  19.000   1.4706   0.07110   0.06787   0.0167  0.0093  1.0000  -12.5830   0.0000   0.2104
  19.100   1.4588   0.07438   0.07122   0.0150  0.0093  1.0000  -12.5110   0.0000   0.2112
  19.200   1.4464   0.07779   0.07469   0.0133  0.0093  1.0000  -12.4317   0.0000   0.2121
  19.300   1.4336   0.08131   0.07827   0.0115  0.0093  1.0000  -12.3456   0.0000   0.2130
  19.400   1.4205   0.08488   0.08189   0.0097  0.0093  1.0000  -12.2540   0.0000   0.2139
  19.500   1.4067   0.08859   0.08566   0.0078  0.0093  1.0000  -12.1536   0.0000   0.2149
  19.600   1.3926   0.09239   0.08952   0.0059  0.0093  1.0000  -12.0474   0.0000   0.2160
  19.700   1.3784   0.09626   0.09345   0.0039  0.0094  1.0000  -11.9367   0.0000   0.2171
  19.800   1.3637   0.10026   0.09750   0.0019  0.0094  1.0000  -11.8172   0.0000   0.2184
  19.900   1.3485   0.10433   0.10164  -0.0002  0.0094  1.0000  -11.6900   0.0000   0.2197
  20.000   1.3332   0.10847   0.10583  -0.0024  0.0094  1.0000  -11.5578   0.0000   0.2211
  20.100   1.3179   0.11266   0.11008  -0.0046  0.0095  1.0000  -11.4217   0.0000   0.2225
  20.200   1.3027   0.11691   0.11439  -0.0068  0.0095  1.0000  -11.2816   0.0000   0.2241
  20.300   1.2874   0.12122   0.11875  -0.0091  0.0095  1.0000  -11.1365   0.0000   0.2257
  20.400   1.2720   0.12554   0.12312  -0.0114  0.0096  1.0000  -10.9873   0.0000   0.2274
  20.500   1.2570   0.12986   0.12749  -0.0138  0.0096  1.0000  -10.8370   0.0000   0.2292
  20.600   1.2427   0.13414   0.13182  -0.0162  0.0096  1.0000  -10.6888   0.0000   0.2311
  20.700   1.2289   0.13836   0.13610  -0.0186  0.0096  1.0000  -10.5430   0.0000   0.2330
  20.800   1.2157   0.14256   0.14034  -0.0210  0.0096  1.0000  -10.3980   0.0000   0.2349
  20.900   1.2030   0.14671   0.14454  -0.0234  0.0096  1.0000  -10.2555   0.0000   0.2369
  21.000   1.1912   0.15070   0.14857  -0.0257  0.0096  1.0000  -10.1193   0.0000   0.2389
  21.100   1.1808   0.15445   0.15236  -0.0279  0.0096  1.0000  -9.9981   0.0000   0.2408
  21.200   1.1707   0.15819   0.15614  -0.0302  0.0096  1.0000  -9.8752   0.0000   0.2428
  21.300   1.1610   0.16194   0.15993  -0.0325  0.0096  1.0000  -9.7523   0.0000   0.2448
  21.400   1.1532   0.16529   0.16331  -0.0346  0.0095  1.0000  -9.6538   0.0000   0.2466
  21.500   1.1446   0.16891   0.16696  -0.0368  0.0095  1.0000  -9.5362   0.0000   0.2486
  21.600   1.1380   0.17210   0.17019  -0.0389  0.0094  1.0000  -9.4461   0.0000   0.2504
  21.700   1.1302   0.17560   0.17371  -0.0411  0.0093  1.0000  -9.3327   0.0000   0.2525
  21.800   1.1243   0.17872   0.17686  -0.0431  0.0093  1.0000  -9.2433   0.0000   0.2543
  21.900   1.1165   0.18232   0.18051  -0.0454  0.0092  1.0000  -9.1174   0.0000   0.2565
  22.000   1.1113   0.18532   0.18353  -0.0474  0.0091  1.0000  -9.0330   0.0000   0.2583
  22.100   1.1081   0.18786   0.18610  -0.0491  0.0091  1.0000  -8.9821   0.0000   0.2597
  22.200   1.1039   0.19069   0.18895  -0.0509  0.0091  1.0000  -8.9090   0.0000   0.2614
  22.300   1.1013   0.19315   0.19143  -0.0525  0.0091  1.0000  -8.8626   0.0000   0.2628
  22.400   1.0976   0.19591   0.19422  -0.0544  0.0091  1.0000  -8.7928   0.0000   0.2645
  22.500   1.0941   0.19865   0.19698  -0.0562  0.0091  1.0000  -8.7233   0.0000   0.2661
  22.600   1.0916   0.20117   0.19953  -0.0579  0.0091  1.0000  -8.6690   0.0000   0.2676
  22.700   1.0871   0.20426   0.20265  -0.0600  0.0090  1.0000  -8.5716   0.0000   0.2696
  22.800   1.0837   0.20709   0.20550  -0.0619  0.0090  1.0000  -8.4930   0.0000   0.2714
  22.900   1.0797   0.21015   0.20859  -0.0639  0.0090  1.0000  -8.3960   0.0000   0.2734
  23.000   1.0743   0.21363   0.21211  -0.0662  0.0089  1.0000  -8.2638   0.0000   0.2757
  23.100   1.0683   0.21742   0.21593  -0.0687  0.0089  1.0000  -8.1088   0.0000   0.2784
  23.200   1.0604   0.22185   0.22041  -0.0716  0.0088  1.0000  -7.8998   0.0000   0.2816


