xflr5 v6.47

 Calculated polar for: NACA 0012

 1 1 Reynolds number fixed          Mach number fixed         

 xtrf =   1.000 (top)        1.000 (bottom)
 Mach =   0.000     Re =     3.000 e 6     Ncrit =   9.000

  alpha     CL        CD       CDp       Cm    Top Xtr Bot Xtr   Cpmin    Chinge    XCp    
 ------- -------- --------- --------- -------- ------- ------- -------- --------- ---------
 -24.700  -1.0863   0.24283   0.24161   0.0879  1.0000  0.0069  -8.1798   0.0000   0.2913
 -24.600  -1.0892   0.23986   0.23861   0.0858  1.0000  0.0071  -8.3037   0.0000   0.2892
 -24.500  -1.0902   0.23754   0.23628   0.0841  1.0000  0.0072  -8.3669   0.0000   0.2878
 -24.400  -1.0916   0.23513   0.23386   0.0823  1.0000  0.0073  -8.4341   0.0000   0.2862
 -24.300  -1.0957   0.23184   0.23054   0.0800  1.0000  0.0074  -8.5706   0.0000   0.2839
 -24.200  -1.0969   0.22953   0.22822   0.0783  1.0000  0.0075  -8.6253   0.0000   0.2825
 -24.100  -1.0980   0.22724   0.22592   0.0766  1.0000  0.0076  -8.6779   0.0000   0.2811
 -24.000  -1.1025   0.22397   0.22263   0.0743  1.0000  0.0076  -8.8048   0.0000   0.2788
 -23.900  -1.1044   0.22149   0.22014   0.0725  1.0000  0.0077  -8.8672   0.0000   0.2773
 -23.800  -1.1060   0.21911   0.21774   0.0708  1.0000  0.0077  -8.9205   0.0000   0.2758
 -23.700  -1.1092   0.21635   0.21496   0.0689  1.0000  0.0078  -9.0046   0.0000   0.2740
 -23.600  -1.1130   0.21339   0.21198   0.0668  1.0000  0.0079  -9.1001   0.0000   0.2721
 -23.500  -1.1151   0.21095   0.20952   0.0650  1.0000  0.0079  -9.1538   0.0000   0.2706
 -23.400  -1.1188   0.20811   0.20667   0.0630  1.0000  0.0080  -9.2387   0.0000   0.2687
 -23.300  -1.1233   0.20508   0.20361   0.0609  1.0000  0.0080  -9.3349   0.0000   0.2668
 -23.200  -1.1261   0.20252   0.20104   0.0591  1.0000  0.0080  -9.3938   0.0000   0.2653
 -23.100  -1.1325   0.19908   0.19756   0.0568  1.0000  0.0081  -9.5189   0.0000   0.2630
 -23.000  -1.1361   0.19639   0.19486   0.0549  1.0000  0.0081  -9.5856   0.0000   0.2614
 -22.900  -1.1412   0.19339   0.19183   0.0528  1.0000  0.0082  -9.6757   0.0000   0.2595
 -22.800  -1.1479   0.18998   0.18839   0.0505  1.0000  0.0082  -9.7925   0.0000   0.2574
 -22.700  -1.1537   0.18689   0.18528   0.0484  1.0000  0.0082  -9.8866   0.0000   0.2555
 -22.600  -1.1621   0.18323   0.18158   0.0460  1.0000  0.0083  -10.0201   0.0000   0.2533
 -22.500  -1.1705   0.17960   0.17792   0.0435  1.0000  0.0083  -10.1498   0.0000   0.2511
 -22.400  -1.1791   0.17592   0.17421   0.0411  1.0000  0.0083  -10.2774   0.0000   0.2489
 -22.300  -1.1907   0.17162   0.16986   0.0383  1.0000  0.0083  -10.4486   0.0000   0.2463
 -22.200  -1.2032   0.16723   0.16543   0.0354  1.0000  0.0083  -10.6249   0.0000   0.2438
 -22.100  -1.2153   0.16300   0.16116   0.0327  1.0000  0.0083  -10.7873   0.0000   0.2414
 -22.000  -1.2305   0.15820   0.15630   0.0297  1.0000  0.0083  -10.9883   0.0000   0.2388
 -21.900  -1.2482   0.15299   0.15103   0.0264  1.0000  0.0083  -11.2170   0.0000   0.2360
 -21.800  -1.2693   0.14725   0.14523   0.0230  1.0000  0.0083  -11.4817   0.0000   0.2331
 -21.700  -1.2904   0.14159   0.13950   0.0195  1.0000  0.0083  -11.7367   0.0000   0.2303
 -21.600  -1.3122   0.13591   0.13375   0.0162  1.0000  0.0083  -11.9906   0.0000   0.2277
 -21.500  -1.3379   0.12960   0.12737   0.0126  1.0000  0.0082  -12.2862   0.0000   0.2249
 -21.400  -1.3613   0.12390   0.12159   0.0093  1.0000  0.0082  -12.5401   0.0000   0.2226
 -21.300  -1.3873   0.11782   0.11542   0.0060  1.0000  0.0082  -12.8190   0.0000   0.2203
 -21.200  -1.4102   0.11237   0.10990   0.0030  1.0000  0.0081  -13.0507   0.0000   0.2184
 -21.100  -1.4342   0.10677   0.10422  -0.0000  1.0000  0.0081  -13.2909   0.0000   0.2165
 -21.000  -1.4558   0.10173   0.09910  -0.0027  1.0000  0.0081  -13.4942   0.0000   0.2149
 -20.900  -1.4771   0.09677   0.09407  -0.0053  1.0000  0.0081  -13.6910   0.0000   0.2134
 -20.800  -1.4960   0.09226   0.08949  -0.0076  1.0000  0.0080  -13.8545   0.0000   0.2122
 -20.700  -1.5143   0.08787   0.08503  -0.0099  1.0000  0.0080  -14.0089   0.0000   0.2110
 -20.600  -1.5304   0.08391   0.08101  -0.0119  1.0000  0.0080  -14.1345   0.0000   0.2101
 -20.500  -1.5461   0.08007   0.07710  -0.0138  1.0000  0.0080  -14.2529   0.0000   0.2092
 -20.400  -1.5597   0.07656   0.07353  -0.0156  1.0000  0.0080  -14.3464   0.0000   0.2084
 -20.300  -1.5723   0.07324   0.07016  -0.0172  1.0000  0.0080  -14.4259   0.0000   0.2077
 -20.200  -1.5840   0.07008   0.06694  -0.0188  1.0000  0.0080  -14.4952   0.0000   0.2071
 -20.100  -1.5945   0.06716   0.06396  -0.0202  1.0000  0.0080  -14.5492   0.0000   0.2066
 -20.000  -1.6040   0.06443   0.06118  -0.0215  1.0000  0.0080  -14.5909   0.0000   0.2061
 -19.900  -1.6126   0.06183   0.05854  -0.0228  1.0000  0.0080  -14.6221   0.0000   0.2057
 -19.800  -1.6203   0.05938   0.05604  -0.0239  1.0000  0.0080  -14.6430   0.0000   0.2053
 -19.700  -1.6272   0.05709   0.05370  -0.0250  1.0000  0.0081  -14.6542   0.0000   0.2050
 -19.600  -1.6333   0.05494   0.05150  -0.0259  1.0000  0.0081  -14.6561   0.0000   0.2048
 -19.500  -1.6388   0.05292   0.04944  -0.0268  1.0000  0.0081  -14.6506   0.0000   0.2046
 -19.400  -1.6437   0.05100   0.04748  -0.0276  1.0000  0.0081  -14.6382   0.0000   0.2044
 -19.300  -1.6478   0.04919   0.04563  -0.0283  1.0000  0.0081  -14.6176   0.0000   0.2043
 -19.200  -1.6513   0.04748   0.04388  -0.0290  1.0000  0.0082  -14.5904   0.0000   0.2042
 -19.100  -1.6543   0.04587   0.04223  -0.0296  1.0000  0.0082  -14.5572   0.0000   0.2041
 -19.000  -1.6567   0.04435   0.04067  -0.0301  1.0000  0.0082  -14.5187   0.0000   0.2041
 -18.900  -1.6588   0.04291   0.03920  -0.0306  1.0000  0.0083  -14.4752   0.0000   0.2041
 -18.800  -1.6604   0.04155   0.03780  -0.0310  1.0000  0.0083  -14.4273   0.0000   0.2042
 -18.700  -1.6615   0.04027   0.03649  -0.0313  1.0000  0.0083  -14.3743   0.0000   0.2042
 -18.600  -1.6622   0.03905   0.03524  -0.0316  1.0000  0.0084  -14.3164   0.0000   0.2043
 -18.500  -1.6625   0.03791   0.03406  -0.0318  1.0000  0.0084  -14.2547   0.0000   0.2044
 -18.400  -1.6624   0.03682   0.03295  -0.0320  1.0000  0.0084  -14.1896   0.0000   0.2046
 -18.300  -1.6621   0.03580   0.03189  -0.0321  1.0000  0.0085  -14.1216   0.0000   0.2048
 -18.200  -1.6615   0.03483   0.03089  -0.0322  1.0000  0.0085  -14.0509   0.0000   0.2050
 -18.100  -1.6606   0.03390   0.02994  -0.0322  1.0000  0.0085  -13.9775   0.0000   0.2052
 -18.000  -1.6594   0.03303   0.02904  -0.0321  1.0000  0.0086  -13.9009   0.0000   0.2055
 -17.900  -1.6579   0.03220   0.02818  -0.0321  1.0000  0.0086  -13.8218   0.0000   0.2057
 -17.800  -1.6562   0.03142   0.02737  -0.0319  1.0000  0.0086  -13.7405   0.0000   0.2060
 -17.700  -1.6543   0.03067   0.02660  -0.0318  1.0000  0.0087  -13.6573   0.0000   0.2063
 -17.600  -1.6522   0.02997   0.02587  -0.0316  1.0000  0.0087  -13.5723   0.0000   0.2067
 -17.500  -1.6499   0.02930   0.02517  -0.0313  1.0000  0.0087  -13.4855   0.0000   0.2070
 -17.400  -1.6474   0.02866   0.02451  -0.0310  1.0000  0.0088  -13.3965   0.0000   0.2074
 -17.300  -1.6446   0.02806   0.02388  -0.0307  1.0000  0.0088  -13.3058   0.0000   0.2078
 -17.200  -1.6417   0.02749   0.02329  -0.0304  1.0000  0.0088  -13.2137   0.0000   0.2082
 -17.100  -1.6386   0.02695   0.02273  -0.0300  1.0000  0.0089  -13.1202   0.0000   0.2086
 -17.000  -1.6353   0.02644   0.02219  -0.0296  1.0000  0.0089  -13.0253   0.0000   0.2090
 -16.900  -1.6318   0.02595   0.02168  -0.0291  1.0000  0.0089  -12.9282   0.0000   0.2094
 -16.800  -1.6280   0.02549   0.02120  -0.0287  1.0000  0.0090  -12.8294   0.0000   0.2099
 -16.700  -1.6241   0.02506   0.02075  -0.0282  1.0000  0.0090  -12.7294   0.0000   0.2104
 -16.600  -1.6201   0.02465   0.02032  -0.0277  1.0000  0.0090  -12.6283   0.0000   0.2108
 -16.500  -1.6158   0.02426   0.01991  -0.0272  1.0000  0.0090  -12.5256   0.0000   0.2113
 -16.400  -1.6113   0.02389   0.01952  -0.0267  1.0000  0.0091  -12.4217   0.0000   0.2118
 -16.300  -1.6068   0.02353   0.01915  -0.0261  1.0000  0.0091  -12.3172   0.0000   0.2123
 -16.200  -1.6021   0.02320   0.01879  -0.0256  1.0000  0.0091  -12.2118   0.0000   0.2128
 -16.100  -1.5972   0.02288   0.01845  -0.0250  1.0000  0.0091  -12.1055   0.0000   0.2133
 -16.000  -1.5923   0.02257   0.01813  -0.0244  1.0000  0.0091  -11.9988   0.0000   0.2138
 -15.900  -1.5872   0.02227   0.01782  -0.0238  1.0000  0.0091  -11.8918   0.0000   0.2143
 -15.800  -1.5841   0.02185   0.01737  -0.0230  1.0000  0.0092  -11.8026   0.0000   0.2150
 -15.700  -1.5815   0.02142   0.01690  -0.0221  1.0000  0.0094  -11.7183   0.0000   0.2158
 -15.600  -1.5783   0.02102   0.01648  -0.0212  1.0000  0.0095  -11.6294   0.0000   0.2165
 -15.500  -1.5747   0.02066   0.01609  -0.0203  1.0000  0.0096  -11.5371   0.0000   0.2172
 -15.400  -1.5707   0.02033   0.01574  -0.0194  1.0000  0.0097  -11.4473   0.0000   0.2179
 -15.300  -1.5665   0.02003   0.01541  -0.0185  1.0000  0.0099  -11.3564   0.0000   0.2186
 -15.200  -1.5619   0.01974   0.01511  -0.0177  1.0000  0.0100  -11.2629   0.0000   0.2193
 -15.100  -1.5570   0.01948   0.01483  -0.0168  1.0000  0.0101  -11.1668   0.0000   0.2200
 -15.000  -1.5516   0.01923   0.01457  -0.0161  1.0000  0.0102  -11.0674   0.0000   0.2207
 -14.900  -1.5453   0.01899   0.01431  -0.0154  1.0000  0.0103  -10.9627   0.0000   0.2212
 -14.800  -1.5385   0.01875   0.01407  -0.0149  1.0000  0.0104  -10.8549   0.0000   0.2217
 -14.700  -1.5315   0.01852   0.01383  -0.0144  1.0000  0.0105  -10.7456   0.0000   0.2222
 -14.600  -1.5242   0.01830   0.01359  -0.0139  1.0000  0.0106  -10.6351   0.0000   0.2226
 -14.500  -1.5167   0.01809   0.01337  -0.0135  1.0000  0.0107  -10.5239   0.0000   0.2230
 -14.400  -1.5091   0.01788   0.01315  -0.0131  1.0000  0.0108  -10.4122   0.0000   0.2234
 -14.300  -1.5013   0.01768   0.01294  -0.0127  1.0000  0.0109  -10.3001   0.0000   0.2239
 -14.200  -1.4934   0.01748   0.01273  -0.0123  1.0000  0.0110  -10.1876   0.0000   0.2242
 -14.100  -1.4854   0.01729   0.01253  -0.0119  1.0000  0.0111  -10.0748   0.0000   0.2246
 -14.000  -1.4773   0.01710   0.01233  -0.0115  1.0000  0.0112  -9.9616   0.0000   0.2250
 -13.900  -1.4690   0.01692   0.01214  -0.0112  1.0000  0.0113  -9.8482   0.0000   0.2254
 -13.800  -1.4606   0.01674   0.01195  -0.0108  1.0000  0.0114  -9.7347   0.0000   0.2257
 -13.700  -1.4521   0.01657   0.01177  -0.0105  1.0000  0.0115  -9.6212   0.0000   0.2261
 -13.600  -1.4436   0.01640   0.01159  -0.0102  1.0000  0.0115  -9.5075   0.0000   0.2265
 -13.500  -1.4349   0.01623   0.01141  -0.0099  1.0000  0.0116  -9.3938   0.0000   0.2268
 -13.400  -1.4262   0.01607   0.01124  -0.0096  1.0000  0.0117  -9.2801   0.0000   0.2271
 -13.300  -1.4173   0.01592   0.01108  -0.0093  1.0000  0.0117  -9.1663   0.0000   0.2275
 -13.200  -1.4084   0.01577   0.01091  -0.0090  1.0000  0.0118  -9.0526   0.0000   0.2278
 -13.100  -1.3994   0.01562   0.01076  -0.0087  1.0000  0.0118  -8.9389   0.0000   0.2281
 -13.000  -1.3903   0.01547   0.01060  -0.0085  1.0000  0.0119  -8.8254   0.0000   0.2284
 -12.900  -1.3812   0.01533   0.01045  -0.0082  1.0000  0.0119  -8.7120   0.0000   0.2287
 -12.800  -1.3728   0.01512   0.01022  -0.0078  1.0000  0.0121  -8.6070   0.0000   0.2291
 -12.700  -1.3645   0.01489   0.00998  -0.0075  1.0000  0.0124  -8.5038   0.0000   0.2295
 -12.600  -1.3559   0.01469   0.00977  -0.0071  1.0000  0.0126  -8.3985   0.0000   0.2299
 -12.500  -1.3471   0.01450   0.00958  -0.0068  1.0000  0.0129  -8.2916   0.0000   0.2303
 -12.400  -1.3382   0.01433   0.00940  -0.0065  1.0000  0.0131  -8.1836   0.0000   0.2306
 -12.300  -1.3292   0.01417   0.00923  -0.0062  1.0000  0.0133  -8.0751   0.0000   0.2309
 -12.200  -1.3200   0.01401   0.00907  -0.0059  1.0000  0.0135  -7.9664   0.0000   0.2313
 -12.100  -1.3108   0.01386   0.00892  -0.0057  1.0000  0.0137  -7.8578   0.0000   0.2316
 -12.000  -1.3015   0.01372   0.00877  -0.0054  1.0000  0.0139  -7.7495   0.0000   0.2319
 -11.900  -1.2922   0.01358   0.00863  -0.0052  1.0000  0.0140  -7.6414   0.0000   0.2322
 -11.800  -1.2828   0.01345   0.00849  -0.0049  1.0000  0.0142  -7.5337   0.0000   0.2325
 -11.700  -1.2733   0.01332   0.00836  -0.0047  1.0000  0.0144  -7.4264   0.0000   0.2328
 -11.600  -1.2638   0.01319   0.00823  -0.0044  1.0000  0.0145  -7.3192   0.0000   0.2332
 -11.500  -1.2543   0.01307   0.00810  -0.0042  1.0000  0.0146  -7.2122   0.0000   0.2335
 -11.400  -1.2447   0.01296   0.00798  -0.0040  1.0000  0.0148  -7.1057   0.0000   0.2338
 -11.300  -1.2352   0.01285   0.00787  -0.0037  1.0000  0.0149  -6.9995   0.0000   0.2341
 -11.200  -1.2256   0.01275   0.00776  -0.0035  1.0000  0.0149  -6.8938   0.0000   0.2344
 -11.100  -1.2160   0.01265   0.00765  -0.0033  1.0000  0.0150  -6.7888   0.0000   0.2347
 -11.000  -1.2071   0.01248   0.00747  -0.0029  1.0000  0.0154  -6.6916   0.0000   0.2352
 -10.900  -1.1983   0.01231   0.00731  -0.0025  1.0000  0.0158  -6.5941   0.0000   0.2356
 -10.800  -1.1893   0.01217   0.00716  -0.0021  1.0000  0.0162  -6.4958   0.0000   0.2360
 -10.700  -1.1803   0.01204   0.00703  -0.0018  1.0000  0.0165  -6.3974   0.0000   0.2365
 -10.600  -1.1713   0.01192   0.00691  -0.0014  1.0000  0.0168  -6.2994   0.0000   0.2369
 -10.500  -1.1624   0.01180   0.00680  -0.0010  1.0000  0.0171  -6.2034   0.0000   0.2374
 -10.400  -1.1534   0.01169   0.00668  -0.0006  1.0000  0.0174  -6.1130   0.0000   0.2378
 -10.300  -1.1444   0.01158   0.00658  -0.0002  1.0000  0.0176  -6.0229   0.0000   0.2383
 -10.200  -1.1354   0.01148   0.00647   0.0002  1.0000  0.0178  -5.9334   0.0000   0.2388
 -10.100  -1.1264   0.01139   0.00637   0.0006  1.0000  0.0180  -5.8445   0.0000   0.2393
 -10.000  -1.1175   0.01130   0.00628   0.0010  1.0000  0.0182  -5.7561   0.0000   0.2398
  -9.900  -1.1086   0.01121   0.00618   0.0014  1.0000  0.0183  -5.6682   0.0000   0.2403
  -9.800  -1.0997   0.01112   0.00610   0.0019  1.0000  0.0184  -5.5809   0.0000   0.2409
  -9.700  -1.0912   0.01101   0.00598   0.0024  1.0000  0.0188  -5.4976   0.0000   0.2415
  -9.600  -1.0830   0.01088   0.00585   0.0029  1.0000  0.0194  -5.4159   0.0000   0.2421
  -9.500  -1.0747   0.01077   0.00574   0.0035  1.0000  0.0199  -5.3337   0.0000   0.2428
  -9.400  -1.0663   0.01066   0.00563   0.0040  1.0000  0.0203  -5.2514   0.0000   0.2434
  -9.300  -1.0580   0.01056   0.00554   0.0045  1.0000  0.0207  -5.1693   0.0000   0.2441
  -9.200  -1.0471   0.01046   0.00544   0.0045  0.9999  0.0211  -5.0774   0.0000   0.2443
  -9.100  -1.0345   0.01036   0.00534   0.0042  0.9996  0.0215  -4.9788   0.0000   0.2441
  -9.000  -1.0218   0.01026   0.00524   0.0038  0.9993  0.0219  -4.8806   0.0000   0.2438
  -8.900  -1.0090   0.01018   0.00516   0.0034  0.9990  0.0221  -4.7828   0.0000   0.2436
  -8.800  -0.9963   0.01008   0.00506   0.0030  0.9987  0.0225  -4.6863   0.0000   0.2434
  -8.700  -0.9837   0.00995   0.00493   0.0026  0.9984  0.0235  -4.5921   0.0000   0.2431
  -8.600  -0.9710   0.00983   0.00483   0.0022  0.9981  0.0243  -4.4974   0.0000   0.2429
  -8.500  -0.9582   0.00973   0.00473   0.0018  0.9979  0.0250  -4.4028   0.0000   0.2426
  -8.400  -0.9453   0.00963   0.00464   0.0013  0.9976  0.0256  -4.3086   0.0000   0.2423
  -8.300  -0.9326   0.00954   0.00455   0.0010  0.9973  0.0261  -4.2156   0.0000   0.2420
  -8.200  -0.9199   0.00946   0.00447   0.0006  0.9968  0.0264  -4.1238   0.0000   0.2417
  -8.100  -0.9074   0.00935   0.00437   0.0003  0.9963  0.0275  -4.0342   0.0000   0.2414
  -8.000  -0.8948   0.00924   0.00427  -0.0001  0.9958  0.0285  -3.9447   0.0000   0.2411
  -7.900  -0.8821   0.00914   0.00418  -0.0005  0.9953  0.0293  -3.8592   0.0000   0.2408
  -7.800  -0.8692   0.00905   0.00409  -0.0009  0.9949  0.0301  -3.7763   0.0000   0.2404
  -7.700  -0.8562   0.00897   0.00402  -0.0014  0.9945  0.0307  -3.6935   0.0000   0.2400
  -7.600  -0.8432   0.00887   0.00393  -0.0018  0.9941  0.0317  -3.6119   0.0000   0.2395
  -7.500  -0.8303   0.00877   0.00383  -0.0022  0.9938  0.0330  -3.5309   0.0000   0.2391
  -7.400  -0.8172   0.00867   0.00375  -0.0027  0.9934  0.0342  -3.4501   0.0000   0.2386
  -7.300  -0.8041   0.00859   0.00367  -0.0031  0.9930  0.0352  -3.3700   0.0000   0.2380
  -7.200  -0.7921   0.00851   0.00360  -0.0034  0.9919  0.0362  -3.2938   0.0000   0.2378
  -7.100  -0.7802   0.00840   0.00351  -0.0035  0.9907  0.0380  -3.2190   0.0000   0.2376
  -7.000  -0.7680   0.00832   0.00343  -0.0038  0.9895  0.0394  -3.1437   0.0000   0.2373
  -6.900  -0.7557   0.00824   0.00337  -0.0041  0.9885  0.0405  -3.0685   0.0000   0.2370
  -6.800  -0.7434   0.00815   0.00329  -0.0043  0.9875  0.0421  -2.9941   0.0000   0.2366
  -6.700  -0.7320   0.00806   0.00321  -0.0044  0.9857  0.0439  -2.9232   0.0000   0.2365
  -6.600  -0.7208   0.00799   0.00315  -0.0044  0.9836  0.0454  -2.8536   0.0000   0.2365
  -6.500  -0.7093   0.00792   0.00308  -0.0045  0.9817  0.0467  -2.7833   0.0000   0.2363
  -6.400  -0.6978   0.00783   0.00301  -0.0045  0.9800  0.0490  -2.7156   0.0000   0.2362
  -6.300  -0.6873   0.00776   0.00295  -0.0044  0.9771  0.0508  -2.6547   0.0000   0.2364
  -6.200  -0.6764   0.00769   0.00288  -0.0043  0.9744  0.0524  -2.5932   0.0000   0.2365
  -6.100  -0.6658   0.00760   0.00281  -0.0042  0.9720  0.0552  -2.5330   0.0000   0.2367
  -6.000  -0.6553   0.00753   0.00275  -0.0040  0.9687  0.0575  -2.4735   0.0000   0.2369
  -5.900  -0.6448   0.00746   0.00269  -0.0039  0.9655  0.0601  -2.4148   0.0000   0.2372
  -5.800  -0.6343   0.00738   0.00262  -0.0037  0.9623  0.0629  -2.3563   0.0000   0.2374
  -5.700  -0.6238   0.00732   0.00257  -0.0035  0.9586  0.0651  -2.2982   0.0000   0.2377
  -5.500  -0.6028   0.00718   0.00245  -0.0032  0.9512  0.0709  -2.1836   0.0000   0.2382
  -5.400  -0.5924   0.00711   0.00238  -0.0030  0.9471  0.0744  -2.1274   0.0000   0.2384
  -5.300  -0.5817   0.00705   0.00232  -0.0029  0.9431  0.0776  -2.0709   0.0000   0.2387
  -5.200  -0.5712   0.00697   0.00226  -0.0027  0.9385  0.0819  -2.0191   0.0000   0.2389
  -5.000  -0.5499   0.00683   0.00215  -0.0024  0.9292  0.0905  -1.9172   0.0000   0.2394
  -4.900  -0.5393   0.00678   0.00209  -0.0023  0.9244  0.0946  -1.8669   0.0000   0.2396
  -4.800  -0.5285   0.00671   0.00204  -0.0022  0.9192  0.0992  -1.8167   0.0000   0.2398
  -4.600  -0.5070   0.00659   0.00193  -0.0020  0.9083  0.1088  -1.7176   0.0000   0.2402
  -4.400  -0.4856   0.00645   0.00182  -0.0017  0.8966  0.1211  -1.6224   0.0000   0.2406
  -4.300  -0.4749   0.00640   0.00177  -0.0016  0.8904  0.1268  -1.5780   0.0000   0.2408
  -4.200  -0.4640   0.00634   0.00172  -0.0016  0.8840  0.1332  -1.5337   0.0000   0.2410
  -4.100  -0.4532   0.00628   0.00167  -0.0014  0.8775  0.1395  -1.4901   0.0000   0.2412
  -4.000  -0.4423   0.00622   0.00163  -0.0014  0.8706  0.1463  -1.4465   0.0000   0.2413
  -3.900  -0.4315   0.00617   0.00158  -0.0013  0.8638  0.1536  -1.4034   0.0000   0.2415
  -3.800  -0.4207   0.00611   0.00153  -0.0012  0.8564  0.1616  -1.3613   0.0000   0.2417
  -3.700  -0.4098   0.00605   0.00149  -0.0011  0.8492  0.1689  -1.3220   0.0000   0.2418
  -3.600  -0.3990   0.00601   0.00145  -0.0010  0.8415  0.1763  -1.2831   0.0000   0.2420
  -3.500  -0.3880   0.00596   0.00141  -0.0010  0.8339  0.1844  -1.2442   0.0000   0.2421
  -3.400  -0.3772   0.00591   0.00136  -0.0009  0.8260  0.1931  -1.2060   0.0000   0.2423
  -3.300  -0.3662   0.00585   0.00132  -0.0008  0.8178  0.2016  -1.1683   0.0000   0.2425
  -3.200  -0.3553   0.00581   0.00129  -0.0008  0.8098  0.2100  -1.1332   0.0000   0.2426
  -3.100  -0.3444   0.00576   0.00125  -0.0007  0.8012  0.2187  -1.0985   0.0000   0.2428
  -3.000  -0.3333   0.00572   0.00122  -0.0007  0.7929  0.2275  -1.0637   0.0000   0.2429
  -2.900  -0.3224   0.00568   0.00118  -0.0006  0.7844  0.2366  -1.0297   0.0000   0.2430
  -2.800  -0.3115   0.00564   0.00115  -0.0006  0.7754  0.2460  -0.9981   0.0000   0.2432
  -2.700  -0.3004   0.00559   0.00112  -0.0005  0.7669  0.2551  -0.9666   0.0000   0.2433
  -2.600  -0.2894   0.00556   0.00109  -0.0005  0.7580  0.2641  -0.9353   0.0000   0.2434
  -2.400  -0.2673   0.00549   0.00104  -0.0004  0.7400  0.2831  -0.8769   0.0000   0.2436
  -2.300  -0.2564   0.00546   0.00101  -0.0004  0.7306  0.2928  -0.8484   0.0000   0.2438
  -2.200  -0.2453   0.00542   0.00099  -0.0003  0.7214  0.3021  -0.8215   0.0000   0.2438
  -2.100  -0.2342   0.00540   0.00096  -0.0003  0.7125  0.3113  -0.7950   0.0000   0.2439
  -2.000  -0.2231   0.00537   0.00094  -0.0003  0.7028  0.3213  -0.7694   0.0000   0.2440
  -1.900  -0.2120   0.00534   0.00092  -0.0002  0.6937  0.3310  -0.7449   0.0000   0.2441
  -1.800  -0.2009   0.00532   0.00090  -0.0002  0.6845  0.3406  -0.7209   0.0000   0.2442
  -1.700  -0.1898   0.00530   0.00088  -0.0002  0.6748  0.3499  -0.6981   0.0000   0.2442
  -1.600  -0.1787   0.00527   0.00087  -0.0002  0.6656  0.3599  -0.6757   0.0000   0.2443
  -1.500  -0.1676   0.00525   0.00085  -0.0002  0.6563  0.3698  -0.6545   0.0000   0.2444
  -1.400  -0.1565   0.00523   0.00084  -0.0001  0.6466  0.3792  -0.6338   0.0000   0.2445
  -1.300  -0.1452   0.00522   0.00082  -0.0001  0.6374  0.3887  -0.6139   0.0000   0.2445
  -1.200  -0.1342   0.00520   0.00081  -0.0001  0.6280  0.3988  -0.5949   0.0000   0.2446
  -1.100  -0.1230   0.00518   0.00080  -0.0001  0.6182  0.4085  -0.5764   0.0000   0.2446
  -1.000  -0.1118   0.00517   0.00079  -0.0001  0.6092  0.4178  -0.5588   0.0000   0.2446
  -0.900  -0.1007   0.00516   0.00078  -0.0001  0.5995  0.4276  -0.5418   0.0000   0.2447
  -0.800  -0.0895   0.00514   0.00077  -0.0001  0.5899  0.4375  -0.5253   0.0000   0.2448
  -0.700  -0.0783   0.00513   0.00076  -0.0001  0.5807  0.4468  -0.5096   0.0000   0.2448
  -0.600  -0.0671   0.00514   0.00076  -0.0000  0.5710  0.4564  -0.4944   0.0000   0.2448
  -0.500  -0.0560   0.00512   0.00075  -0.0000  0.5615  0.4664  -0.4796   0.0000   0.2448
  -0.400  -0.0448   0.00511   0.00075  -0.0000  0.5523  0.4758  -0.4655   0.0000   0.2448
  -0.300  -0.0336   0.00512   0.00074  -0.0000  0.5423  0.4851  -0.4518   0.0000   0.2449
  -0.200  -0.0224   0.00510   0.00074  -0.0000  0.5330  0.4952  -0.4385   0.0000   0.2449
  -0.100  -0.0112   0.00510   0.00074  -0.0000  0.5238  0.5044  -0.4257   0.0000   0.2449
   0.000   0.0000   0.00511   0.00074  -0.0000  0.5138  0.5138  -0.4133   0.0000   0.4557
   0.100   0.0112   0.00510   0.00074   0.0000  0.5045  0.5238  -0.4257   0.0000   0.2449
   0.200   0.0224   0.00510   0.00074   0.0000  0.4952  0.5330  -0.4385   0.0000   0.2449
   0.300   0.0336   0.00512   0.00074   0.0000  0.4851  0.5423  -0.4518   0.0000   0.2449
   0.400   0.0448   0.00511   0.00075   0.0000  0.4758  0.5523  -0.4655   0.0000   0.2448
   0.500   0.0560   0.00512   0.00075   0.0000  0.4664  0.5615  -0.4796   0.0000   0.2448
   0.600   0.0671   0.00514   0.00076   0.0000  0.4564  0.5710  -0.4944   0.0000   0.2448
   0.700   0.0783   0.00513   0.00076   0.0001  0.4468  0.5807  -0.5096   0.0000   0.2448
   0.800   0.0895   0.00514   0.00077   0.0001  0.4376  0.5899  -0.5253   0.0000   0.2448
   0.900   0.1007   0.00516   0.00078   0.0001  0.4276  0.5995  -0.5418   0.0000   0.2447
   1.000   0.1118   0.00517   0.00079   0.0001  0.4178  0.6092  -0.5588   0.0000   0.2446
   1.100   0.1230   0.00518   0.00080   0.0001  0.4085  0.6182  -0.5764   0.0000   0.2446
   1.200   0.1342   0.00520   0.00081   0.0001  0.3988  0.6280  -0.5949   0.0000   0.2446
   1.300   0.1452   0.00522   0.00082   0.0001  0.3887  0.6374  -0.6139   0.0000   0.2445
   1.400   0.1565   0.00523   0.00084   0.0001  0.3792  0.6466  -0.6338   0.0000   0.2445
   1.500   0.1676   0.00525   0.00085   0.0002  0.3698  0.6563  -0.6545   0.0000   0.2444
   1.600   0.1787   0.00527   0.00087   0.0002  0.3599  0.6656  -0.6757   0.0000   0.2443
   1.700   0.1898   0.00530   0.00088   0.0002  0.3499  0.6748  -0.6981   0.0000   0.2443
   1.800   0.2009   0.00532   0.00090   0.0002  0.3406  0.6845  -0.7209   0.0000   0.2442
   1.900   0.2120   0.00534   0.00092   0.0002  0.3310  0.6937  -0.7449   0.0000   0.2441
   2.000   0.2231   0.00537   0.00094   0.0003  0.3213  0.7028  -0.7694   0.0000   0.2440
   2.100   0.2342   0.00540   0.00096   0.0003  0.3113  0.7125  -0.7950   0.0000   0.2439
   2.200   0.2453   0.00542   0.00099   0.0003  0.3021  0.7214  -0.8215   0.0000   0.2438
   2.300   0.2564   0.00546   0.00101   0.0004  0.2928  0.7306  -0.8484   0.0000   0.2438
   2.400   0.2674   0.00549   0.00104   0.0004  0.2831  0.7400  -0.8769   0.0000   0.2436
   2.600   0.2895   0.00556   0.00109   0.0005  0.2641  0.7580  -0.9353   0.0000   0.2434
   2.700   0.3004   0.00559   0.00112   0.0005  0.2551  0.7669  -0.9666   0.0000   0.2433
   2.800   0.3115   0.00564   0.00115   0.0006  0.2460  0.7754  -0.9981   0.0000   0.2432
   2.900   0.3224   0.00568   0.00118   0.0006  0.2366  0.7844  -1.0297   0.0000   0.2430
   3.000   0.3334   0.00572   0.00122   0.0007  0.2275  0.7929  -1.0638   0.0000   0.2429
   3.100   0.3444   0.00576   0.00125   0.0007  0.2187  0.8012  -1.0985   0.0000   0.2428
   3.200   0.3553   0.00581   0.00129   0.0008  0.2100  0.8098  -1.1333   0.0000   0.2426
   3.300   0.3662   0.00585   0.00132   0.0008  0.2016  0.8178  -1.1683   0.0000   0.2425
   3.400   0.3772   0.00591   0.00136   0.0009  0.1931  0.8260  -1.2060   0.0000   0.2423
   3.500   0.3880   0.00596   0.00140   0.0010  0.1844  0.8339  -1.2443   0.0000   0.2421
   3.600   0.3990   0.00601   0.00145   0.0010  0.1763  0.8415  -1.2831   0.0000   0.2420
   3.700   0.4098   0.00605   0.00149   0.0011  0.1689  0.8493  -1.3220   0.0000   0.2418
   3.800   0.4207   0.00611   0.00153   0.0012  0.1616  0.8564  -1.3613   0.0000   0.2417
   3.900   0.4315   0.00617   0.00158   0.0013  0.1536  0.8638  -1.4034   0.0000   0.2415
   4.000   0.4424   0.00622   0.00163   0.0014  0.1463  0.8706  -1.4465   0.0000   0.2413
   4.100   0.4533   0.00628   0.00167   0.0014  0.1395  0.8775  -1.4901   0.0000   0.2412
   4.200   0.4640   0.00634   0.00172   0.0015  0.1332  0.8840  -1.5338   0.0000   0.2410
   4.300   0.4749   0.00640   0.00177   0.0016  0.1268  0.8904  -1.5780   0.0000   0.2408
   4.400   0.4856   0.00645   0.00182   0.0017  0.1211  0.8966  -1.6224   0.0000   0.2406
   4.600   0.5070   0.00659   0.00193   0.0020  0.1088  0.9083  -1.7176   0.0000   0.2402
   4.800   0.5286   0.00671   0.00204   0.0022  0.0992  0.9192  -1.8167   0.0000   0.2398
   4.900   0.5394   0.00678   0.00209   0.0023  0.0945  0.9244  -1.8670   0.0000   0.2396
   5.000   0.5500   0.00683   0.00215   0.0024  0.0905  0.9292  -1.9173   0.0000   0.2394
   5.200   0.5712   0.00697   0.00226   0.0027  0.0819  0.9385  -2.0191   0.0000   0.2389
   5.300   0.5817   0.00705   0.00232   0.0029  0.0776  0.9431  -2.0710   0.0000   0.2387
   5.400   0.5924   0.00711   0.00238   0.0030  0.0744  0.9471  -2.1275   0.0000   0.2385
   5.500   0.6028   0.00718   0.00245   0.0032  0.0709  0.9512  -2.1837   0.0000   0.2382
   5.700   0.6238   0.00732   0.00257   0.0035  0.0651  0.9586  -2.2983   0.0000   0.2377
   5.800   0.6344   0.00738   0.00262   0.0037  0.0629  0.9623  -2.3564   0.0000   0.2374
   5.900   0.6449   0.00746   0.00269   0.0038  0.0601  0.9655  -2.4149   0.0000   0.2372
   6.000   0.6553   0.00753   0.00275   0.0040  0.0575  0.9687  -2.4736   0.0000   0.2369
   6.100   0.6658   0.00760   0.00281   0.0042  0.0552  0.9720  -2.5331   0.0000   0.2367
   6.200   0.6765   0.00769   0.00288   0.0043  0.0524  0.9744  -2.5933   0.0000   0.2365
   6.300   0.6873   0.00776   0.00295   0.0044  0.0508  0.9771  -2.6548   0.0000   0.2365
   6.400   0.6978   0.00783   0.00301   0.0045  0.0490  0.9800  -2.7157   0.0000   0.2362
   6.500   0.7093   0.00792   0.00308   0.0045  0.0467  0.9817  -2.7834   0.0000   0.2364
   6.600   0.7209   0.00799   0.00315   0.0044  0.0454  0.9835  -2.8537   0.0000   0.2365
   6.700   0.7320   0.00806   0.00321   0.0044  0.0439  0.9857  -2.9233   0.0000   0.2365
   6.800   0.7434   0.00815   0.00329   0.0043  0.0421  0.9875  -2.9942   0.0000   0.2366
   6.900   0.7558   0.00824   0.00336   0.0040  0.0405  0.9885  -3.0686   0.0000   0.2370
   7.000   0.7681   0.00832   0.00343   0.0038  0.0394  0.9896  -3.1438   0.0000   0.2373
   7.100   0.7802   0.00840   0.00351   0.0035  0.0380  0.9907  -3.2191   0.0000   0.2376
   7.200   0.7921   0.00851   0.00360   0.0033  0.0362  0.9919  -3.2939   0.0000   0.2378
   7.300   0.8042   0.00859   0.00367   0.0031  0.0352  0.9930  -3.3701   0.0000   0.2381
   7.400   0.8172   0.00867   0.00375   0.0027  0.0342  0.9934  -3.4502   0.0000   0.2386
   7.500   0.8303   0.00877   0.00383   0.0022  0.0330  0.9938  -3.5311   0.0000   0.2391
   7.600   0.8433   0.00887   0.00393   0.0018  0.0317  0.9941  -3.6120   0.0000   0.2396
   7.700   0.8563   0.00897   0.00402   0.0013  0.0307  0.9945  -3.6937   0.0000   0.2400
   7.800   0.8693   0.00905   0.00409   0.0009  0.0301  0.9949  -3.7765   0.0000   0.2404
   7.900   0.8821   0.00914   0.00418   0.0005  0.0293  0.9953  -3.8594   0.0000   0.2408
   8.000   0.8949   0.00924   0.00427   0.0001  0.0285  0.9958  -3.9448   0.0000   0.2412
   8.100   0.9075   0.00935   0.00437  -0.0003  0.0274  0.9963  -4.0344   0.0000   0.2415
   8.200   0.9200   0.00946   0.00447  -0.0006  0.0264  0.9968  -4.1239   0.0000   0.2417
   8.300   0.9326   0.00954   0.00455  -0.0010  0.0261  0.9973  -4.2157   0.0000   0.2420
   8.400   0.9454   0.00963   0.00464  -0.0014  0.0256  0.9976  -4.3088   0.0000   0.2423
   8.500   0.9583   0.00972   0.00473  -0.0018  0.0250  0.9979  -4.4030   0.0000   0.2426
   8.600   0.9711   0.00983   0.00483  -0.0022  0.0243  0.9981  -4.4976   0.0000   0.2429
   8.700   0.9838   0.00995   0.00493  -0.0026  0.0235  0.9984  -4.5923   0.0000   0.2432
   8.800   0.9963   0.01008   0.00506  -0.0030  0.0225  0.9987  -4.6866   0.0000   0.2434
   8.900   1.0091   0.01018   0.00516  -0.0034  0.0221  0.9990  -4.7831   0.0000   0.2436
   9.000   1.0218   0.01026   0.00524  -0.0038  0.0219  0.9993  -4.8809   0.0000   0.2439
   9.100   1.0345   0.01036   0.00534  -0.0042  0.0215  0.9996  -4.9790   0.0000   0.2441
   9.200   1.0472   0.01046   0.00544  -0.0046  0.0211  0.9999  -5.0776   0.0000   0.2443
   9.300   1.0579   0.01056   0.00554  -0.0045  0.0207  1.0000  -5.1689   0.0000   0.2441
   9.400   1.0662   0.01066   0.00563  -0.0040  0.0203  1.0000  -5.2510   0.0000   0.2434
   9.500   1.0746   0.01077   0.00574  -0.0034  0.0199  1.0000  -5.3333   0.0000   0.2428
   9.600   1.0829   0.01088   0.00585  -0.0029  0.0194  1.0000  -5.4156   0.0000   0.2421
   9.700   1.0912   0.01101   0.00598  -0.0024  0.0188  1.0000  -5.4973   0.0000   0.2414
   9.800   1.0996   0.01112   0.00610  -0.0018  0.0184  1.0000  -5.5806   0.0000   0.2408
   9.900   1.1085   0.01121   0.00618  -0.0014  0.0183  1.0000  -5.6679   0.0000   0.2403
  10.000   1.1174   0.01129   0.00628  -0.0010  0.0182  1.0000  -5.7558   0.0000   0.2398
  10.100   1.1264   0.01139   0.00637  -0.0006  0.0180  1.0000  -5.8443   0.0000   0.2393
  10.200   1.1354   0.01148   0.00647  -0.0002  0.0178  1.0000  -5.9333   0.0000   0.2388
  10.300   1.1444   0.01158   0.00657   0.0002  0.0176  1.0000  -6.0228   0.0000   0.2383
  10.400   1.1534   0.01169   0.00668   0.0006  0.0174  1.0000  -6.1129   0.0000   0.2378
  10.500   1.1623   0.01180   0.00680   0.0010  0.0171  1.0000  -6.2033   0.0000   0.2374
  10.600   1.1713   0.01192   0.00691   0.0014  0.0168  1.0000  -6.2993   0.0000   0.2369
  10.700   1.1803   0.01204   0.00703   0.0018  0.0165  1.0000  -6.3974   0.0000   0.2365
  10.800   1.1893   0.01217   0.00716   0.0021  0.0162  1.0000  -6.4958   0.0000   0.2360
  10.900   1.1983   0.01231   0.00731   0.0025  0.0158  1.0000  -6.5942   0.0000   0.2356
  11.000   1.2072   0.01247   0.00747   0.0029  0.0154  1.0000  -6.6917   0.0000   0.2352
  11.100   1.2160   0.01265   0.00765   0.0032  0.0150  1.0000  -6.7890   0.0000   0.2347
  11.200   1.2256   0.01275   0.00776   0.0035  0.0149  1.0000  -6.8941   0.0000   0.2344
  11.300   1.2352   0.01285   0.00787   0.0037  0.0149  1.0000  -6.9998   0.0000   0.2341
  11.400   1.2448   0.01296   0.00798   0.0040  0.0148  1.0000  -7.1060   0.0000   0.2338
  11.500   1.2544   0.01307   0.00810   0.0042  0.0146  1.0000  -7.2126   0.0000   0.2335
  11.600   1.2639   0.01319   0.00823   0.0044  0.0145  1.0000  -7.3196   0.0000   0.2332
  11.700   1.2734   0.01332   0.00836   0.0047  0.0144  1.0000  -7.4268   0.0000   0.2329
  11.800   1.2829   0.01345   0.00849   0.0049  0.0142  1.0000  -7.5342   0.0000   0.2326
  11.900   1.2922   0.01358   0.00863   0.0052  0.0140  1.0000  -7.6419   0.0000   0.2322
  12.000   1.3016   0.01372   0.00877   0.0054  0.0139  1.0000  -7.7500   0.0000   0.2319
  12.100   1.3109   0.01386   0.00892   0.0057  0.0137  1.0000  -7.8584   0.0000   0.2316
  12.200   1.3201   0.01401   0.00907   0.0059  0.0135  1.0000  -7.9671   0.0000   0.2313
  12.300   1.3293   0.01417   0.00923   0.0062  0.0133  1.0000  -8.0758   0.0000   0.2310
  12.400   1.3383   0.01433   0.00940   0.0065  0.0131  1.0000  -8.1843   0.0000   0.2306
  12.500   1.3473   0.01450   0.00958   0.0068  0.0129  1.0000  -8.2923   0.0000   0.2303
  12.600   1.3561   0.01469   0.00977   0.0071  0.0126  1.0000  -8.3993   0.0000   0.2299
  12.700   1.3646   0.01489   0.00998   0.0074  0.0124  1.0000  -8.5046   0.0000   0.2295
  12.800   1.3730   0.01512   0.01022   0.0078  0.0121  1.0000  -8.6078   0.0000   0.2291
  12.900   1.3814   0.01533   0.01045   0.0082  0.0119  1.0000  -8.7130   0.0000   0.2287
  13.000   1.3905   0.01547   0.01060   0.0084  0.0119  1.0000  -8.8264   0.0000   0.2284
  13.100   1.3996   0.01562   0.01076   0.0087  0.0118  1.0000  -8.9400   0.0000   0.2281
  13.200   1.4086   0.01577   0.01091   0.0090  0.0118  1.0000  -9.0537   0.0000   0.2278
  13.300   1.4175   0.01592   0.01108   0.0092  0.0117  1.0000  -9.1675   0.0000   0.2275
  13.400   1.4264   0.01607   0.01124   0.0095  0.0117  1.0000  -9.2813   0.0000   0.2272
  13.500   1.4351   0.01623   0.01141   0.0098  0.0116  1.0000  -9.3951   0.0000   0.2268
  13.600   1.4438   0.01640   0.01159   0.0101  0.0115  1.0000  -9.5088   0.0000   0.2265
  13.700   1.4524   0.01657   0.01177   0.0104  0.0115  1.0000  -9.6225   0.0000   0.2261
  13.800   1.4609   0.01674   0.01195   0.0108  0.0114  1.0000  -9.7362   0.0000   0.2258
  13.900   1.4692   0.01692   0.01214   0.0111  0.0113  1.0000  -9.8497   0.0000   0.2254
  14.000   1.4775   0.01710   0.01233   0.0115  0.0112  1.0000  -9.9631   0.0000   0.2251
  14.100   1.4857   0.01729   0.01253   0.0118  0.0111  1.0000  -10.0764   0.0000   0.2247
  14.200   1.4937   0.01748   0.01273   0.0122  0.0110  1.0000  -10.1893   0.0000   0.2243
  14.300   1.5016   0.01768   0.01294   0.0126  0.0109  1.0000  -10.3019   0.0000   0.2239
  14.400   1.5094   0.01788   0.01315   0.0130  0.0108  1.0000  -10.4141   0.0000   0.2235
  14.500   1.5170   0.01809   0.01337   0.0134  0.0107  1.0000  -10.5259   0.0000   0.2231
  14.600   1.5245   0.01830   0.01359   0.0139  0.0106  1.0000  -10.6372   0.0000   0.2226
  14.700   1.5318   0.01852   0.01382   0.0143  0.0105  1.0000  -10.7478   0.0000   0.2222
  14.800   1.5389   0.01875   0.01406   0.0148  0.0104  1.0000  -10.8572   0.0000   0.2217
  14.900   1.5457   0.01899   0.01431   0.0154  0.0103  1.0000  -10.9652   0.0000   0.2213
  15.000   1.5520   0.01923   0.01457   0.0160  0.0102  1.0000  -11.0703   0.0000   0.2207
  15.100   1.5575   0.01948   0.01483   0.0167  0.0101  1.0000  -11.1700   0.0000   0.2201
  15.200   1.5624   0.01974   0.01511   0.0175  0.0100  1.0000  -11.2663   0.0000   0.2194
  15.300   1.5670   0.02003   0.01542   0.0184  0.0099  1.0000  -11.3599   0.0000   0.2187
  15.400   1.5713   0.02033   0.01574   0.0193  0.0097  1.0000  -11.4510   0.0000   0.2180
  15.500   1.5753   0.02067   0.01610   0.0202  0.0096  1.0000  -11.5411   0.0000   0.2173
  15.600   1.5789   0.02103   0.01648   0.0211  0.0095  1.0000  -11.6335   0.0000   0.2166
  15.700   1.5821   0.02142   0.01690   0.0220  0.0094  1.0000  -11.7225   0.0000   0.2158
  15.800   1.5848   0.02186   0.01737   0.0229  0.0092  1.0000  -11.8069   0.0000   0.2151
  15.900   1.5880   0.02226   0.01781   0.0237  0.0091  1.0000  -11.8974   0.0000   0.2144
  16.000   1.5931   0.02256   0.01812   0.0243  0.0091  1.0000  -12.0048   0.0000   0.2139
  16.100   1.5981   0.02287   0.01844   0.0249  0.0091  1.0000  -12.1117   0.0000   0.2134
  16.200   1.6030   0.02319   0.01878   0.0254  0.0091  1.0000  -12.2183   0.0000   0.2129
  16.300   1.6077   0.02352   0.01914   0.0260  0.0091  1.0000  -12.3239   0.0000   0.2124
  16.400   1.6123   0.02387   0.01951   0.0265  0.0091  1.0000  -12.4287   0.0000   0.2119
  16.500   1.6168   0.02424   0.01989   0.0270  0.0090  1.0000  -12.5328   0.0000   0.2114
  16.600   1.6211   0.02463   0.02030   0.0275  0.0090  1.0000  -12.6359   0.0000   0.2109
  16.700   1.6252   0.02504   0.02073   0.0280  0.0090  1.0000  -12.7373   0.0000   0.2105
  16.800   1.6291   0.02547   0.02118   0.0285  0.0090  1.0000  -12.8376   0.0000   0.2100
  16.900   1.6329   0.02593   0.02166   0.0290  0.0089  1.0000  -12.9366   0.0000   0.2096
  17.000   1.6365   0.02641   0.02216   0.0294  0.0089  1.0000  -13.0340   0.0000   0.2091
  17.100   1.6398   0.02692   0.02270   0.0298  0.0089  1.0000  -13.1294   0.0000   0.2087
  17.200   1.6430   0.02746   0.02326   0.0302  0.0088  1.0000  -13.2232   0.0000   0.2083
  17.300   1.6459   0.02803   0.02385   0.0305  0.0088  1.0000  -13.3157   0.0000   0.2079
  17.400   1.6487   0.02863   0.02448   0.0308  0.0088  1.0000  -13.4067   0.0000   0.2075
  17.500   1.6514   0.02927   0.02514   0.0311  0.0087  1.0000  -13.4962   0.0000   0.2071
  17.600   1.6537   0.02993   0.02583   0.0314  0.0087  1.0000  -13.5836   0.0000   0.2068
  17.700   1.6559   0.03063   0.02655   0.0316  0.0087  1.0000  -13.6690   0.0000   0.2065
  17.800   1.6578   0.03137   0.02732   0.0317  0.0086  1.0000  -13.7526   0.0000   0.2061
  17.900   1.6596   0.03215   0.02813   0.0319  0.0086  1.0000  -13.8343   0.0000   0.2059
  18.000   1.6611   0.03298   0.02898   0.0319  0.0086  1.0000  -13.9138   0.0000   0.2056
  18.100   1.6624   0.03385   0.02988   0.0320  0.0085  1.0000  -13.9911   0.0000   0.2054
  18.200   1.6633   0.03476   0.03082   0.0319  0.0085  1.0000  -14.0652   0.0000   0.2051
  18.300   1.6640   0.03573   0.03182   0.0319  0.0084  1.0000  -14.1365   0.0000   0.2049
  18.400   1.6644   0.03675   0.03287   0.0318  0.0084  1.0000  -14.2051   0.0000   0.2047
  18.500   1.6645   0.03783   0.03398   0.0316  0.0084  1.0000  -14.2707   0.0000   0.2046
  18.600   1.6643   0.03897   0.03515   0.0314  0.0083  1.0000  -14.3330   0.0000   0.2045
  18.700   1.6637   0.04017   0.03639   0.0311  0.0083  1.0000  -14.3916   0.0000   0.2044
  18.800   1.6626   0.04145   0.03770   0.0307  0.0083  1.0000  -14.4455   0.0000   0.2043
  18.900   1.6611   0.04280   0.03909   0.0304  0.0083  1.0000  -14.4942   0.0000   0.2043
  19.000   1.6591   0.04423   0.04055   0.0299  0.0082  1.0000  -14.5384   0.0000   0.2043
  19.100   1.6567   0.04575   0.04211   0.0294  0.0082  1.0000  -14.5776   0.0000   0.2043
  19.200   1.6538   0.04735   0.04375   0.0288  0.0082  1.0000  -14.6115   0.0000   0.2044
  19.300   1.6504   0.04905   0.04549   0.0281  0.0081  1.0000  -14.6396   0.0000   0.2045
  19.400   1.6464   0.05086   0.04733   0.0274  0.0081  1.0000  -14.6611   0.0000   0.2046
  19.500   1.6416   0.05276   0.04928   0.0266  0.0081  1.0000  -14.6745   0.0000   0.2048
  19.600   1.6362   0.05478   0.05134   0.0257  0.0081  1.0000  -14.6804   0.0000   0.2050
  19.700   1.6302   0.05692   0.05352   0.0247  0.0081  1.0000  -14.6795   0.0000   0.2052
  19.800   1.6235   0.05919   0.05584   0.0237  0.0080  1.0000  -14.6699   0.0000   0.2055
  19.900   1.6158   0.06163   0.05833   0.0225  0.0080  1.0000  -14.6497   0.0000   0.2059
  20.000   1.6073   0.06423   0.06097   0.0213  0.0080  1.0000  -14.6193   0.0000   0.2063
  20.100   1.5978   0.06695   0.06375   0.0200  0.0080  1.0000  -14.5779   0.0000   0.2067
  20.200   1.5875   0.06984   0.06670   0.0186  0.0080  1.0000  -14.5260   0.0000   0.2073
  20.300   1.5759   0.07299   0.06990   0.0170  0.0080  1.0000  -14.4579   0.0000   0.2079
  20.400   1.5633   0.07632   0.07328   0.0153  0.0080  1.0000  -14.3778   0.0000   0.2086
  20.500   1.5500   0.07979   0.07682   0.0136  0.0080  1.0000  -14.2873   0.0000   0.2093
  20.600   1.5344   0.08362   0.08072   0.0116  0.0080  1.0000  -14.1699   0.0000   0.2102
  20.700   1.5182   0.08760   0.08476   0.0096  0.0080  1.0000  -14.0430   0.0000   0.2112
  20.800   1.5002   0.09192   0.08915   0.0074  0.0080  1.0000  -13.8932   0.0000   0.2123
  20.900   1.4811   0.09649   0.09379   0.0050  0.0080  1.0000  -13.7262   0.0000   0.2136
  21.000   1.4602   0.10137   0.09874   0.0024  0.0081  1.0000  -13.5359   0.0000   0.2150
  21.100   1.4382   0.10650   0.10394  -0.0003  0.0081  1.0000  -13.3265   0.0000   0.2166
  21.200   1.4144   0.11204   0.10957  -0.0032  0.0081  1.0000  -13.0897   0.0000   0.2185
  21.300   1.3913   0.11755   0.11515  -0.0062  0.0082  1.0000  -12.8548   0.0000   0.2205
  21.400   1.3652   0.12365   0.12134  -0.0096  0.0082  1.0000  -12.5758   0.0000   0.2228
  21.500   1.3417   0.12937   0.12713  -0.0128  0.0082  1.0000  -12.3204   0.0000   0.2251
  21.600   1.3156   0.13572   0.13357  -0.0165  0.0083  1.0000  -12.0219   0.0000   0.2279
  21.700   1.2935   0.14147   0.13938  -0.0198  0.0083  1.0000  -11.7634   0.0000   0.2305
  21.800   1.2726   0.14713   0.14511  -0.0232  0.0083  1.0000  -11.5111   0.0000   0.2332
  21.900   1.2511   0.15293   0.15098  -0.0267  0.0083  1.0000  -11.2418   0.0000   0.2362
  22.000   1.2330   0.15822   0.15632  -0.0300  0.0083  1.0000  -11.0089   0.0000   0.2390
  22.100   1.2177   0.16307   0.16123  -0.0331  0.0083  1.0000  -10.8056   0.0000   0.2416
  22.200   1.2054   0.16734   0.16554  -0.0358  0.0083  1.0000  -10.6408   0.0000   0.2440
  22.300   1.1928   0.17177   0.17001  -0.0386  0.0083  1.0000  -10.4628   0.0000   0.2466
  22.400   1.1810   0.17612   0.17440  -0.0415  0.0083  1.0000  -10.2903   0.0000   0.2491
  22.500   1.1722   0.17986   0.17817  -0.0439  0.0083  1.0000  -10.1594   0.0000   0.2513
  22.600   1.1639   0.18350   0.18185  -0.0463  0.0082  1.0000  -10.0313   0.0000   0.2535
  22.700   1.1554   0.18720   0.18559  -0.0488  0.0082  1.0000  -9.8957   0.0000   0.2558
  22.800   1.1496   0.19030   0.18871  -0.0509  0.0082  1.0000  -9.8023   0.0000   0.2577
  22.900   1.1427   0.19376   0.19220  -0.0532  0.0082  1.0000  -9.6826   0.0000   0.2598
  23.000   1.1377   0.19677   0.19523  -0.0553  0.0081  1.0000  -9.5939   0.0000   0.2616
  23.100   1.1340   0.19949   0.19798  -0.0572  0.0081  1.0000  -9.5256   0.0000   0.2633
  23.200   1.1276   0.20296   0.20147  -0.0595  0.0080  1.0000  -9.4007   0.0000   0.2655
  23.300   1.1248   0.20553   0.20407  -0.0613  0.0080  1.0000  -9.3418   0.0000   0.2671
  23.400   1.1201   0.20866   0.20722  -0.0635  0.0080  1.0000  -9.2402   0.0000   0.2691
  23.500   1.1165   0.21146   0.21004  -0.0654  0.0079  1.0000  -9.1597   0.0000   0.2708
  23.600   1.1144   0.21393   0.21252  -0.0672  0.0079  1.0000  -9.1056   0.0000   0.2723
  23.700   1.1103   0.21699   0.21560  -0.0693  0.0078  1.0000  -9.0048   0.0000   0.2743
  23.800   1.1074   0.21972   0.21835  -0.0712  0.0077  1.0000  -8.9250   0.0000   0.2761
  23.900   1.1057   0.22213   0.22077  -0.0730  0.0077  1.0000  -8.8718   0.0000   0.2775
  24.000   1.1035   0.22474   0.22340  -0.0748  0.0076  1.0000  -8.8018   0.0000   0.2792
  24.100   1.0993   0.22794   0.22662  -0.0770  0.0075  1.0000  -8.6809   0.0000   0.2814
  24.200   1.0982   0.23027   0.22896  -0.0787  0.0075  1.0000  -8.6288   0.0000   0.2828
  24.300   1.0970   0.23261   0.23132  -0.0804  0.0074  1.0000  -8.5733   0.0000   0.2842
  24.400   1.0928   0.23598   0.23471  -0.0827  0.0073  1.0000  -8.4351   0.0000   0.2866
  24.500   1.0915   0.23839   0.23713  -0.0845  0.0072  1.0000  -8.3692   0.0000   0.2881
  24.600   1.0905   0.24076   0.23952  -0.0862  0.0071  1.0000  -8.3042   0.0000   0.2896
  24.700   1.0868   0.24402   0.24281  -0.0885  0.0069  1.0000  -8.1590   0.0000   0.2919
  24.800   1.0620   0.25523   0.25412  -0.0953  0.0067  1.0000  -7.3457   0.0000   0.3010


