xflr5 v6.47

 Calculated polar for: NACA 0012

 1 1 Reynolds number fixed          Mach number fixed         

 xtrf =   1.000 (top)        1.000 (bottom)
 Mach =   0.000     Re =     4.000 e 6     Ncrit =   9.000

  alpha     CL        CD       CDp       Cm    Top Xtr Bot Xtr   Cpmin    Chinge    XCp    
 ------- -------- --------- --------- -------- ------- ------- -------- --------- ---------
 -25.000  -1.1085   0.24169   0.24055   0.0879  1.0000  0.0066  -8.7176   0.0000   0.2884
 -24.900  -1.1086   0.23973   0.23857   0.0864  1.0000  0.0066  -8.7496   0.0000   0.2873
 -24.800  -1.1088   0.23775   0.23658   0.0849  1.0000  0.0066  -8.7821   0.0000   0.2861
 -24.700  -1.1123   0.23467   0.23348   0.0827  1.0000  0.0066  -8.9015   0.0000   0.2840
 -24.600  -1.1129   0.23257   0.23136   0.0811  1.0000  0.0067  -8.9407   0.0000   0.2827
 -24.500  -1.1131   0.23061   0.22939   0.0796  1.0000  0.0067  -8.9662   0.0000   0.2816
 -24.400  -1.1132   0.22864   0.22740   0.0781  1.0000  0.0067  -8.9908   0.0000   0.2805
 -24.300  -1.1152   0.22617   0.22492   0.0763  1.0000  0.0067  -9.0563   0.0000   0.2789
 -24.200  -1.1178   0.22352   0.22225   0.0744  1.0000  0.0067  -9.1340   0.0000   0.2772
 -24.100  -1.1182   0.22153   0.22024   0.0729  1.0000  0.0067  -9.1582   0.0000   0.2761
 -24.000  -1.1188   0.21946   0.21817   0.0714  1.0000  0.0067  -9.1865   0.0000   0.2749
 -23.900  -1.1213   0.21690   0.21558   0.0696  1.0000  0.0067  -9.2542   0.0000   0.2733
 -23.800  -1.1242   0.21422   0.21288   0.0677  1.0000  0.0067  -9.3259   0.0000   0.2716
 -23.700  -1.1268   0.21168   0.21032   0.0658  1.0000  0.0068  -9.3908   0.0000   0.2700
 -23.600  -1.1315   0.20858   0.20719   0.0636  1.0000  0.0069  -9.4972   0.0000   0.2680
 -23.500  -1.1389   0.20479   0.20337   0.0610  1.0000  0.0069  -9.6519   0.0000   0.2654
 -23.400  -1.1442   0.20163   0.20019   0.0587  1.0000  0.0070  -9.7583   0.0000   0.2634
 -23.300  -1.1538   0.19739   0.19591   0.0558  1.0000  0.0071  -9.9422   0.0000   0.2605
 -23.200  -1.1622   0.19357   0.19206   0.0532  1.0000  0.0071  -10.0934   0.0000   0.2580
 -23.100  -1.1729   0.18927   0.18772   0.0502  1.0000  0.0072  -10.2782   0.0000   0.2552
 -23.000  -1.1862   0.18447   0.18287   0.0470  1.0000  0.0072  -10.4988   0.0000   0.2521
 -22.900  -1.2007   0.17948   0.17784   0.0436  1.0000  0.0072  -10.7296   0.0000   0.2489
 -22.800  -1.2160   0.17436   0.17266   0.0402  1.0000  0.0072  -10.9642   0.0000   0.2458
 -22.700  -1.2322   0.16917   0.16741   0.0367  1.0000  0.0072  -11.2014   0.0000   0.2427
 -22.600  -1.2499   0.16378   0.16197   0.0332  1.0000  0.0072  -11.4491   0.0000   0.2396
 -22.500  -1.2681   0.15840   0.15653   0.0297  1.0000  0.0072  -11.6948   0.0000   0.2367
 -22.400  -1.2871   0.15303   0.15110   0.0264  1.0000  0.0071  -11.9388   0.0000   0.2339
 -22.300  -1.3068   0.14766   0.14567   0.0230  1.0000  0.0071  -12.1821   0.0000   0.2312
 -22.200  -1.3270   0.14226   0.14021   0.0198  1.0000  0.0071  -12.4243   0.0000   0.2287
 -22.100  -1.3485   0.13669   0.13457   0.0164  1.0000  0.0070  -12.6746   0.0000   0.2262
 -22.000  -1.3693   0.13135   0.12916   0.0133  1.0000  0.0070  -12.9066   0.0000   0.2239
 -21.900  -1.3892   0.12630   0.12405   0.0104  1.0000  0.0069  -13.1182   0.0000   0.2219
 -21.800  -1.4095   0.12128   0.11897   0.0076  1.0000  0.0069  -13.3286   0.0000   0.2201
 -21.700  -1.4303   0.11622   0.11384   0.0048  1.0000  0.0069  -13.5378   0.0000   0.2183
 -21.600  -1.4493   0.11150   0.10906   0.0023  1.0000  0.0068  -13.7213   0.0000   0.2167
 -21.500  -1.4679   0.10692   0.10442  -0.0002  1.0000  0.0068  -13.8943   0.0000   0.2153
 -21.400  -1.4867   0.10237   0.09980  -0.0026  1.0000  0.0068  -14.0656   0.0000   0.2140
 -21.200  -1.5227   0.09368   0.09099  -0.0071  1.0000  0.0067  -14.3772   0.0000   0.2116
 -21.100  -1.5435   0.08891   0.08615  -0.0096  1.0000  0.0067  -14.5610   0.0000   0.2103
 -21.000  -1.5608   0.08478   0.08195  -0.0117  1.0000  0.0067  -14.7016   0.0000   0.2093
 -20.900  -1.5780   0.08073   0.07783  -0.0137  1.0000  0.0067  -14.8370   0.0000   0.2084
 -20.800  -1.5923   0.07716   0.07420  -0.0155  1.0000  0.0067  -14.9378   0.0000   0.2076
 -20.700  -1.6054   0.07378   0.07077  -0.0172  1.0000  0.0067  -15.0237   0.0000   0.2070
 -20.600  -1.6176   0.07057   0.06750  -0.0188  1.0000  0.0067  -15.0977   0.0000   0.2064
 -20.500  -1.6282   0.06764   0.06452  -0.0202  1.0000  0.0067  -15.1530   0.0000   0.2058
 -20.400  -1.6378   0.06492   0.06175  -0.0215  1.0000  0.0067  -15.1948   0.0000   0.2054
 -20.300  -1.6465   0.06235   0.05913  -0.0227  1.0000  0.0067  -15.2261   0.0000   0.2050
 -20.200  -1.6541   0.05991   0.05665  -0.0239  1.0000  0.0067  -15.2457   0.0000   0.2047
 -20.000  -1.6691   0.05520   0.05184  -0.0260  1.0000  0.0068  -15.2794   0.0000   0.2041
 -19.900  -1.6765   0.05293   0.04953  -0.0270  1.0000  0.0068  -15.2935   0.0000   0.2039
 -19.800  -1.6833   0.05078   0.04732  -0.0278  1.0000  0.0068  -15.3010   0.0000   0.2037
 -19.700  -1.6894   0.04874   0.04524  -0.0287  1.0000  0.0069  -15.2997   0.0000   0.2036
 -19.600  -1.6946   0.04683   0.04328  -0.0294  1.0000  0.0069  -15.2899   0.0000   0.2035
 -19.500  -1.6992   0.04504   0.04145  -0.0300  1.0000  0.0069  -15.2722   0.0000   0.2034
 -19.400  -1.7032   0.04337   0.03973  -0.0306  1.0000  0.0070  -15.2480   0.0000   0.2034
 -19.300  -1.7067   0.04179   0.03811  -0.0310  1.0000  0.0070  -15.2179   0.0000   0.2035
 -19.200  -1.7096   0.04031   0.03659  -0.0314  1.0000  0.0071  -15.1818   0.0000   0.2036
 -19.100  -1.7119   0.03892   0.03517  -0.0317  1.0000  0.0071  -15.1391   0.0000   0.2037
 -19.000  -1.7137   0.03762   0.03383  -0.0320  1.0000  0.0072  -15.0909   0.0000   0.2038
 -18.900  -1.7150   0.03640   0.03257  -0.0322  1.0000  0.0072  -15.0378   0.0000   0.2040
 -18.800  -1.7159   0.03526   0.03139  -0.0323  1.0000  0.0073  -14.9804   0.0000   0.2042
 -18.700  -1.7165   0.03418   0.03029  -0.0323  1.0000  0.0074  -14.9189   0.0000   0.2044
 -18.600  -1.7166   0.03318   0.02925  -0.0323  1.0000  0.0074  -14.8533   0.0000   0.2047
 -18.500  -1.7163   0.03223   0.02828  -0.0322  1.0000  0.0075  -14.7831   0.0000   0.2050
 -18.400  -1.7157   0.03135   0.02736  -0.0321  1.0000  0.0075  -14.7093   0.0000   0.2053
 -18.300  -1.7147   0.03052   0.02650  -0.0319  1.0000  0.0076  -14.6324   0.0000   0.2056
 -18.200  -1.7135   0.02973   0.02570  -0.0317  1.0000  0.0077  -14.5529   0.0000   0.2060
 -18.100  -1.7121   0.02900   0.02494  -0.0314  1.0000  0.0077  -14.4708   0.0000   0.2063
 -18.000  -1.7103   0.02830   0.02422  -0.0311  1.0000  0.0078  -14.3856   0.0000   0.2067
 -17.900  -1.7081   0.02765   0.02355  -0.0308  1.0000  0.0079  -14.2971   0.0000   0.2071
 -17.800  -1.7057   0.02704   0.02291  -0.0304  1.0000  0.0079  -14.2067   0.0000   0.2076
 -17.700  -1.7032   0.02646   0.02231  -0.0300  1.0000  0.0080  -14.1148   0.0000   0.2080
 -17.600  -1.7005   0.02591   0.02174  -0.0295  1.0000  0.0080  -14.0214   0.0000   0.2085
 -17.500  -1.6975   0.02539   0.02120  -0.0290  1.0000  0.0081  -13.9258   0.0000   0.2089
 -17.400  -1.6943   0.02489   0.02069  -0.0286  1.0000  0.0081  -13.8283   0.0000   0.2094
 -17.300  -1.6910   0.02443   0.02020  -0.0280  1.0000  0.0082  -13.7297   0.0000   0.2099
 -17.200  -1.6875   0.02398   0.01974  -0.0275  1.0000  0.0082  -13.6301   0.0000   0.2104
 -17.100  -1.6838   0.02356   0.01930  -0.0269  1.0000  0.0083  -13.5289   0.0000   0.2109
 -17.000  -1.6799   0.02316   0.01888  -0.0264  1.0000  0.0083  -13.4260   0.0000   0.2114
 -16.900  -1.6759   0.02278   0.01848  -0.0258  1.0000  0.0084  -13.3224   0.0000   0.2119
 -16.800  -1.6717   0.02242   0.01811  -0.0251  1.0000  0.0084  -13.2179   0.0000   0.2125
 -16.700  -1.6673   0.02207   0.01774  -0.0245  1.0000  0.0085  -13.1121   0.0000   0.2130
 -16.600  -1.6628   0.02174   0.01740  -0.0239  1.0000  0.0085  -13.0055   0.0000   0.2136
 -16.500  -1.6582   0.02143   0.01707  -0.0232  1.0000  0.0086  -12.8982   0.0000   0.2141
 -16.400  -1.6534   0.02113   0.01675  -0.0226  1.0000  0.0086  -12.7897   0.0000   0.2147
 -16.300  -1.6485   0.02084   0.01645  -0.0219  1.0000  0.0087  -12.6806   0.0000   0.2152
 -16.200  -1.6435   0.02057   0.01616  -0.0212  1.0000  0.0087  -12.5709   0.0000   0.2158
 -16.100  -1.6383   0.02031   0.01589  -0.0205  1.0000  0.0088  -12.4602   0.0000   0.2164
 -16.000  -1.6330   0.02006   0.01562  -0.0198  1.0000  0.0088  -12.3490   0.0000   0.2170
 -15.900  -1.6277   0.01982   0.01537  -0.0191  1.0000  0.0089  -12.2373   0.0000   0.2176
 -15.800  -1.6222   0.01959   0.01513  -0.0184  1.0000  0.0089  -12.1252   0.0000   0.2181
 -15.700  -1.6166   0.01937   0.01490  -0.0177  1.0000  0.0089  -12.0126   0.0000   0.2187
 -15.600  -1.6109   0.01916   0.01467  -0.0169  1.0000  0.0090  -11.8997   0.0000   0.2194
 -15.500  -1.6050   0.01896   0.01446  -0.0162  1.0000  0.0090  -11.7858   0.0000   0.2199
 -15.400  -1.5988   0.01877   0.01426  -0.0156  1.0000  0.0090  -11.6711   0.0000   0.2205
 -15.300  -1.5919   0.01858   0.01405  -0.0150  1.0000  0.0090  -11.5578   0.0000   0.2210
 -15.200  -1.5846   0.01838   0.01385  -0.0146  1.0000  0.0091  -11.4422   0.0000   0.2214
 -15.100  -1.5771   0.01820   0.01365  -0.0141  1.0000  0.0091  -11.3258   0.0000   0.2219
 -15.000  -1.5695   0.01801   0.01345  -0.0137  1.0000  0.0091  -11.2090   0.0000   0.2223
 -14.900  -1.5617   0.01783   0.01326  -0.0133  1.0000  0.0091  -11.0920   0.0000   0.2227
 -14.800  -1.5538   0.01764   0.01307  -0.0129  1.0000  0.0091  -10.9749   0.0000   0.2231
 -14.700  -1.5460   0.01745   0.01286  -0.0125  1.0000  0.0092  -10.8596   0.0000   0.2235
 -14.600  -1.5390   0.01718   0.01258  -0.0120  1.0000  0.0093  -10.7546   0.0000   0.2239
 -14.500  -1.5317   0.01693   0.01231  -0.0115  1.0000  0.0095  -10.6474   0.0000   0.2244
 -14.400  -1.5242   0.01670   0.01206  -0.0110  1.0000  0.0097  -10.5384   0.0000   0.2248
 -14.300  -1.5165   0.01647   0.01182  -0.0106  1.0000  0.0098  -10.4279   0.0000   0.2253
 -14.200  -1.5085   0.01626   0.01160  -0.0102  1.0000  0.0100  -10.3160   0.0000   0.2257
 -14.100  -1.5004   0.01606   0.01139  -0.0098  1.0000  0.0102  -10.2029   0.0000   0.2261
 -14.000  -1.4921   0.01586   0.01119  -0.0095  1.0000  0.0103  -10.0887   0.0000   0.2264
 -13.900  -1.4837   0.01568   0.01099  -0.0091  1.0000  0.0105  -9.9739   0.0000   0.2268
 -13.800  -1.4752   0.01550   0.01081  -0.0088  1.0000  0.0106  -9.8588   0.0000   0.2272
 -13.700  -1.4665   0.01532   0.01063  -0.0085  1.0000  0.0107  -9.7433   0.0000   0.2275
 -13.600  -1.4578   0.01516   0.01046  -0.0082  1.0000  0.0108  -9.6278   0.0000   0.2279
 -13.500  -1.4489   0.01499   0.01029  -0.0079  1.0000  0.0110  -9.5120   0.0000   0.2282
 -13.400  -1.4400   0.01484   0.01013  -0.0076  1.0000  0.0111  -9.3963   0.0000   0.2285
 -13.300  -1.4310   0.01468   0.00997  -0.0074  1.0000  0.0112  -9.2807   0.0000   0.2288
 -13.200  -1.4219   0.01454   0.00982  -0.0071  1.0000  0.0113  -9.1652   0.0000   0.2292
 -13.100  -1.4127   0.01439   0.00967  -0.0068  1.0000  0.0114  -9.0499   0.0000   0.2295
 -13.000  -1.4035   0.01425   0.00952  -0.0066  1.0000  0.0115  -8.9346   0.0000   0.2298
 -12.900  -1.3941   0.01412   0.00938  -0.0064  1.0000  0.0116  -8.8196   0.0000   0.2301
 -12.800  -1.3848   0.01398   0.00924  -0.0061  1.0000  0.0116  -8.7048   0.0000   0.2304
 -12.700  -1.3754   0.01385   0.00910  -0.0059  1.0000  0.0117  -8.5903   0.0000   0.2307
 -12.600  -1.3659   0.01373   0.00897  -0.0057  1.0000  0.0118  -8.4762   0.0000   0.2310
 -12.500  -1.3564   0.01360   0.00884  -0.0055  1.0000  0.0118  -8.3623   0.0000   0.2313
 -12.400  -1.3468   0.01348   0.00871  -0.0052  1.0000  0.0118  -8.2488   0.0000   0.2316
 -12.300  -1.3373   0.01336   0.00859  -0.0050  1.0000  0.0119  -8.1358   0.0000   0.2318
 -12.200  -1.3277   0.01325   0.00847  -0.0048  1.0000  0.0119  -8.0232   0.0000   0.2321
 -12.100  -1.3186   0.01307   0.00828  -0.0045  1.0000  0.0122  -7.9177   0.0000   0.2325
 -12.000  -1.3095   0.01290   0.00811  -0.0042  1.0000  0.0125  -7.8117   0.0000   0.2328
 -11.900  -1.3003   0.01275   0.00795  -0.0040  1.0000  0.0128  -7.7052   0.0000   0.2332
 -11.800  -1.2910   0.01260   0.00780  -0.0037  1.0000  0.0131  -7.5982   0.0000   0.2335
 -11.700  -1.2816   0.01246   0.00766  -0.0034  1.0000  0.0133  -7.4911   0.0000   0.2339
 -11.600  -1.2723   0.01233   0.00753  -0.0032  1.0000  0.0135  -7.3842   0.0000   0.2342
 -11.500  -1.2628   0.01220   0.00740  -0.0029  1.0000  0.0137  -7.2776   0.0000   0.2345
 -11.400  -1.2534   0.01208   0.00728  -0.0026  1.0000  0.0139  -7.1714   0.0000   0.2349
 -11.300  -1.2440   0.01196   0.00716  -0.0024  1.0000  0.0141  -7.0658   0.0000   0.2352
 -11.200  -1.2345   0.01185   0.00705  -0.0021  1.0000  0.0143  -6.9608   0.0000   0.2356
 -11.100  -1.2251   0.01175   0.00694  -0.0018  1.0000  0.0145  -6.8565   0.0000   0.2359
 -11.000  -1.2158   0.01164   0.00684  -0.0015  1.0000  0.0146  -6.7529   0.0000   0.2363
 -10.900  -1.2064   0.01155   0.00674  -0.0012  1.0000  0.0148  -6.6501   0.0000   0.2367
 -10.800  -1.1972   0.01146   0.00664  -0.0008  1.0000  0.0149  -6.5482   0.0000   0.2371
 -10.700  -1.1879   0.01137   0.00655  -0.0005  1.0000  0.0149  -6.4470   0.0000   0.2376
 -10.600  -1.1787   0.01128   0.00646  -0.0001  1.0000  0.0150  -6.3465   0.0000   0.2380
 -10.500  -1.1699   0.01116   0.00633   0.0003  1.0000  0.0153  -6.2504   0.0000   0.2385
 -10.400  -1.1613   0.01103   0.00621   0.0008  1.0000  0.0157  -6.1626   0.0000   0.2390
 -10.300  -1.1527   0.01091   0.00609   0.0013  1.0000  0.0162  -6.0747   0.0000   0.2396
 -10.200  -1.1441   0.01080   0.00598   0.0017  1.0000  0.0165  -5.9869   0.0000   0.2402
 -10.100  -1.1355   0.01069   0.00587   0.0022  1.0000  0.0169  -5.8994   0.0000   0.2407
 -10.000  -1.1270   0.01059   0.00577   0.0027  1.0000  0.0172  -5.8124   0.0000   0.2413
  -9.900  -1.1185   0.01050   0.00568   0.0032  1.0000  0.0174  -5.7259   0.0000   0.2419
  -9.800  -1.1100   0.01041   0.00559   0.0038  1.0000  0.0177  -5.6400   0.0000   0.2425
  -9.700  -1.0979   0.01031   0.00550   0.0035  0.9998  0.0180  -5.5392   0.0000   0.2425
  -9.600  -1.0854   0.01022   0.00540   0.0031  0.9996  0.0182  -5.4375   0.0000   0.2423
  -9.500  -1.0729   0.01013   0.00531   0.0028  0.9993  0.0183  -5.3363   0.0000   0.2421
  -9.400  -1.0604   0.01004   0.00522   0.0024  0.9991  0.0184  -5.2356   0.0000   0.2420
  -9.300  -1.0480   0.00993   0.00511   0.0021  0.9988  0.0190  -5.1375   0.0000   0.2418
  -9.200  -1.0356   0.00981   0.00500   0.0018  0.9985  0.0197  -5.0402   0.0000   0.2416
  -9.100  -1.0231   0.00969   0.00489   0.0014  0.9983  0.0203  -4.9428   0.0000   0.2414
  -9.000  -1.0106   0.00959   0.00479   0.0010  0.9980  0.0208  -4.8455   0.0000   0.2412
  -8.900  -0.9979   0.00949   0.00470   0.0007  0.9978  0.0213  -4.7485   0.0000   0.2409
  -8.800  -0.9852   0.00940   0.00462   0.0003  0.9976  0.0217  -4.6519   0.0000   0.2407
  -8.700  -0.9727   0.00931   0.00453  -0.0001  0.9972  0.0220  -4.5569   0.0000   0.2404
  -8.600  -0.9603   0.00924   0.00445  -0.0004  0.9967  0.0222  -4.4628   0.0000   0.2402
  -8.500  -0.9479   0.00914   0.00436  -0.0007  0.9963  0.0230  -4.3705   0.0000   0.2400
  -8.400  -0.9356   0.00903   0.00426  -0.0010  0.9958  0.0240  -4.2788   0.0000   0.2398
  -8.300  -0.9230   0.00892   0.00417  -0.0014  0.9954  0.0247  -4.1870   0.0000   0.2395
  -8.200  -0.9104   0.00883   0.00408  -0.0017  0.9950  0.0254  -4.0953   0.0000   0.2392
  -8.100  -0.8976   0.00875   0.00401  -0.0021  0.9946  0.0259  -4.0040   0.0000   0.2388
  -8.000  -0.8849   0.00867   0.00393  -0.0025  0.9941  0.0263  -3.9134   0.0000   0.2384
  -7.900  -0.8723   0.00859   0.00385  -0.0028  0.9936  0.0270  -3.8311   0.0000   0.2381
  -7.800  -0.8598   0.00849   0.00376  -0.0032  0.9931  0.0282  -3.7500   0.0000   0.2378
  -7.700  -0.8481   0.00840   0.00368  -0.0033  0.9919  0.0291  -3.6719   0.0000   0.2377
  -7.600  -0.8365   0.00832   0.00361  -0.0034  0.9905  0.0299  -3.5945   0.0000   0.2376
  -7.500  -0.8247   0.00824   0.00354  -0.0036  0.9892  0.0305  -3.5170   0.0000   0.2374
  -7.400  -0.8126   0.00817   0.00347  -0.0038  0.9880  0.0311  -3.4393   0.0000   0.2372
  -7.300  -0.8008   0.00808   0.00340  -0.0040  0.9868  0.0325  -3.3636   0.0000   0.2370
  -7.200  -0.7902   0.00800   0.00332  -0.0038  0.9844  0.0337  -3.2920   0.0000   0.2372
  -7.100  -0.7791   0.00793   0.00326  -0.0038  0.9823  0.0347  -3.2192   0.0000   0.2372
  -7.000  -0.7678   0.00786   0.00319  -0.0038  0.9805  0.0355  -3.1465   0.0000   0.2372
  -6.900  -0.7573   0.00779   0.00313  -0.0037  0.9778  0.0370  -3.0769   0.0000   0.2374
  -6.800  -0.7468   0.00771   0.00306  -0.0036  0.9750  0.0386  -3.0081   0.0000   0.2377
  -6.600  -0.7256   0.00758   0.00294  -0.0033  0.9694  0.0407  -2.8710   0.0000   0.2381
  -6.500  -0.7152   0.00751   0.00287  -0.0031  0.9661  0.0425  -2.8042   0.0000   0.2384
  -6.400  -0.7048   0.00744   0.00281  -0.0029  0.9631  0.0442  -2.7377   0.0000   0.2386
  -6.300  -0.6942   0.00738   0.00275  -0.0028  0.9594  0.0455  -2.6758   0.0000   0.2389
  -6.200  -0.6837   0.00732   0.00269  -0.0026  0.9558  0.0469  -2.6151   0.0000   0.2391
  -6.100  -0.6731   0.00725   0.00262  -0.0025  0.9522  0.0491  -2.5549   0.0000   0.2394
  -6.000  -0.6625   0.00719   0.00257  -0.0023  0.9480  0.0509  -2.4949   0.0000   0.2396
  -5.900  -0.6519   0.00713   0.00251  -0.0022  0.9442  0.0527  -2.4352   0.0000   0.2398
  -5.800  -0.6412   0.00706   0.00245  -0.0021  0.9397  0.0555  -2.3762   0.0000   0.2401
  -5.600  -0.6198   0.00694   0.00233  -0.0018  0.9307  0.0605  -2.2591   0.0000   0.2405
  -5.500  -0.6091   0.00688   0.00228  -0.0017  0.9257  0.0631  -2.2014   0.0000   0.2407
  -5.400  -0.5982   0.00683   0.00223  -0.0016  0.9209  0.0653  -2.1435   0.0000   0.2409
  -5.300  -0.5875   0.00677   0.00217  -0.0015  0.9154  0.0686  -2.0868   0.0000   0.2411
  -5.200  -0.5765   0.00672   0.00212  -0.0014  0.9102  0.0710  -2.0323   0.0000   0.2412
  -5.100  -0.5658   0.00666   0.00206  -0.0013  0.9043  0.0748  -1.9808   0.0000   0.2414
  -5.000  -0.5548   0.00661   0.00201  -0.0013  0.8987  0.0780  -1.9291   0.0000   0.2416
  -4.900  -0.5441   0.00655   0.00195  -0.0012  0.8924  0.0826  -1.8785   0.0000   0.2418
  -4.800  -0.5331   0.00650   0.00191  -0.0011  0.8864  0.0863  -1.8276   0.0000   0.2419
  -4.700  -0.5223   0.00644   0.00185  -0.0010  0.8797  0.0909  -1.7777   0.0000   0.2421
  -4.600  -0.5113   0.00639   0.00181  -0.0010  0.8733  0.0947  -1.7276   0.0000   0.2422
  -4.400  -0.4894   0.00629   0.00171  -0.0008  0.8593  0.1041  -1.6304   0.0000   0.2425
  -4.200  -0.4676   0.00619   0.00162  -0.0007  0.8445  0.1155  -1.5411   0.0000   0.2429
  -4.100  -0.4566   0.00614   0.00157  -0.0006  0.8372  0.1213  -1.4970   0.0000   0.2430
  -3.900  -0.4346   0.00605   0.00149  -0.0005  0.8215  0.1326  -1.4096   0.0000   0.2433
  -3.800  -0.4237   0.00600   0.00145  -0.0005  0.8133  0.1392  -1.3667   0.0000   0.2434
  -3.700  -0.4126   0.00596   0.00141  -0.0004  0.8051  0.1460  -1.3270   0.0000   0.2435
  -3.600  -0.4016   0.00591   0.00137  -0.0004  0.7970  0.1531  -1.2878   0.0000   0.2437
  -3.500  -0.3907   0.00587   0.00133  -0.0004  0.7882  0.1602  -1.2489   0.0000   0.2438
  -3.400  -0.3796   0.00583   0.00129  -0.0003  0.7799  0.1671  -1.2102   0.0000   0.2439
  -3.300  -0.3685   0.00579   0.00125  -0.0003  0.7713  0.1747  -1.1719   0.0000   0.2440
  -3.200  -0.3575   0.00574   0.00122  -0.0002  0.7623  0.1828  -1.1366   0.0000   0.2441
  -3.100  -0.3465   0.00570   0.00119  -0.0002  0.7538  0.1908  -1.1017   0.0000   0.2442
  -3.000  -0.3354   0.00567   0.00115  -0.0002  0.7447  0.1986  -1.0670   0.0000   0.2444
  -2.900  -0.3243   0.00563   0.00112  -0.0002  0.7358  0.2068  -1.0324   0.0000   0.2445
  -2.800  -0.3132   0.00559   0.00109  -0.0001  0.7271  0.2151  -1.0004   0.0000   0.2446
  -2.700  -0.3022   0.00556   0.00106  -0.0001  0.7177  0.2240  -0.9689   0.0000   0.2447
  -2.600  -0.2911   0.00552   0.00103  -0.0001  0.7089  0.2327  -0.9375   0.0000   0.2448
  -2.500  -0.2799   0.00549   0.00101  -0.0001  0.6999  0.2411  -0.9076   0.0000   0.2449
  -2.300  -0.2577   0.00543   0.00096  -0.0000  0.6816  0.2590  -0.8500   0.0000   0.2450
  -2.200  -0.2466   0.00540   0.00094  -0.0000  0.6724  0.2680  -0.8229   0.0000   0.2451
  -2.100  -0.2354   0.00537   0.00092  -0.0000  0.6631  0.2769  -0.7964   0.0000   0.2452
  -2.000  -0.2242   0.00535   0.00090  -0.0000  0.6543  0.2855  -0.7704   0.0000   0.2452
  -1.800  -0.2019   0.00529   0.00086   0.0000  0.6357  0.3046  -0.7217   0.0000   0.2454
  -1.700  -0.1907   0.00528   0.00084   0.0000  0.6267  0.3132  -0.6989   0.0000   0.2454
  -1.600  -0.1796   0.00526   0.00082   0.0000  0.6171  0.3223  -0.6763   0.0000   0.2455
  -1.500  -0.1684   0.00523   0.00081   0.0000  0.6084  0.3321  -0.6551   0.0000   0.2456
  -1.400  -0.1572   0.00521   0.00079   0.0000  0.5990  0.3413  -0.6343   0.0000   0.2456
  -1.300  -0.1460   0.00520   0.00078   0.0000  0.5897  0.3501  -0.6144   0.0000   0.2456
  -1.200  -0.1348   0.00518   0.00077   0.0000  0.5809  0.3597  -0.5952   0.0000   0.2457
  -1.100  -0.1236   0.00517   0.00076   0.0000  0.5713  0.3692  -0.5767   0.0000   0.2458
  -1.000  -0.1123   0.00515   0.00075   0.0000  0.5624  0.3782  -0.5590   0.0000   0.2458
  -0.900  -0.1011   0.00514   0.00074   0.0000  0.5534  0.3873  -0.5419   0.0000   0.2458
  -0.800  -0.0899   0.00513   0.00073   0.0000  0.5438  0.3971  -0.5254   0.0000   0.2459
  -0.700  -0.0787   0.00512   0.00072   0.0000  0.5351  0.4061  -0.5097   0.0000   0.2459
  -0.600  -0.0674   0.00512   0.00071   0.0000  0.5259  0.4150  -0.4944   0.0000   0.2459
  -0.500  -0.0562   0.00511   0.00071   0.0000  0.5164  0.4249  -0.4796   0.0000   0.2460
  -0.400  -0.0450   0.00510   0.00071   0.0000  0.5078  0.4340  -0.4654   0.0000   0.2459
  -0.300  -0.0337   0.00510   0.00070   0.0000  0.4982  0.4427  -0.4517   0.0000   0.2459
  -0.200  -0.0225   0.00509   0.00070   0.0000  0.4891  0.4527  -0.4383   0.0000   0.2460
  -0.100  -0.0112   0.00509   0.00070   0.0000  0.4802  0.4615  -0.4255   0.0000   0.2459
   0.000   0.0000   0.00510   0.00070  -0.0000  0.4705  0.4705  -0.4131   0.0000   0.4634
   0.100   0.0112   0.00509   0.00070  -0.0000  0.4615  0.4802  -0.4255   0.0000   0.2459
   0.200   0.0225   0.00509   0.00070  -0.0000  0.4527  0.4891  -0.4383   0.0000   0.2460
   0.300   0.0337   0.00510   0.00070  -0.0000  0.4427  0.4982  -0.4517   0.0000   0.2459
   0.400   0.0450   0.00510   0.00071  -0.0000  0.4340  0.5078  -0.4654   0.0000   0.2459
   0.500   0.0562   0.00511   0.00071  -0.0000  0.4249  0.5164  -0.4796   0.0000   0.2460
   0.600   0.0674   0.00512   0.00071  -0.0000  0.4150  0.5259  -0.4944   0.0000   0.2459
   0.700   0.0787   0.00512   0.00072  -0.0000  0.4061  0.5351  -0.5097   0.0000   0.2459
   0.800   0.0899   0.00513   0.00073  -0.0000  0.3971  0.5438  -0.5254   0.0000   0.2459
   0.900   0.1011   0.00514   0.00074  -0.0000  0.3873  0.5534  -0.5419   0.0000   0.2458
   1.000   0.1123   0.00515   0.00075  -0.0000  0.3782  0.5624  -0.5590   0.0000   0.2458
   1.100   0.1236   0.00517   0.00076  -0.0000  0.3692  0.5713  -0.5767   0.0000   0.2458
   1.200   0.1348   0.00518   0.00077  -0.0000  0.3597  0.5809  -0.5952   0.0000   0.2457
   1.300   0.1460   0.00520   0.00078  -0.0000  0.3501  0.5897  -0.6144   0.0000   0.2456
   1.400   0.1572   0.00521   0.00079  -0.0000  0.3413  0.5990  -0.6343   0.0000   0.2456
   1.500   0.1684   0.00523   0.00081  -0.0000  0.3321  0.6084  -0.6551   0.0000   0.2456
   1.600   0.1796   0.00526   0.00082  -0.0000  0.3223  0.6171  -0.6763   0.0000   0.2455
   1.700   0.1908   0.00528   0.00084  -0.0000  0.3132  0.6267  -0.6989   0.0000   0.2454
   1.800   0.2019   0.00529   0.00086  -0.0000  0.3046  0.6357  -0.7217   0.0000   0.2454
   2.000   0.2242   0.00535   0.00090   0.0000  0.2855  0.6543  -0.7704   0.0000   0.2452
   2.100   0.2354   0.00537   0.00092   0.0000  0.2769  0.6631  -0.7964   0.0000   0.2452
   2.200   0.2466   0.00540   0.00094   0.0000  0.2680  0.6724  -0.8229   0.0000   0.2451
   2.300   0.2577   0.00543   0.00096   0.0000  0.2590  0.6816  -0.8500   0.0000   0.2450
   2.500   0.2800   0.00549   0.00101   0.0001  0.2411  0.6999  -0.9076   0.0000   0.2449
   2.600   0.2911   0.00552   0.00103   0.0001  0.2327  0.7089  -0.9375   0.0000   0.2448
   2.700   0.3022   0.00556   0.00106   0.0001  0.2240  0.7177  -0.9689   0.0000   0.2447
   2.800   0.3132   0.00559   0.00109   0.0001  0.2151  0.7271  -1.0004   0.0000   0.2446
   2.900   0.3243   0.00563   0.00112   0.0002  0.2068  0.7358  -1.0324   0.0000   0.2445
   3.000   0.3354   0.00567   0.00115   0.0002  0.1986  0.7447  -1.0670   0.0000   0.2444
   3.100   0.3465   0.00570   0.00118   0.0002  0.1908  0.7538  -1.1017   0.0000   0.2443
   3.200   0.3575   0.00574   0.00122   0.0002  0.1828  0.7623  -1.1367   0.0000   0.2441
   3.300   0.3686   0.00579   0.00125   0.0003  0.1747  0.7713  -1.1719   0.0000   0.2440
   3.400   0.3796   0.00583   0.00129   0.0003  0.1671  0.7799  -1.2102   0.0000   0.2439
   3.500   0.3907   0.00587   0.00133   0.0003  0.1602  0.7882  -1.2489   0.0000   0.2438
   3.600   0.4016   0.00591   0.00137   0.0004  0.1531  0.7970  -1.2878   0.0000   0.2437
   3.700   0.4126   0.00596   0.00141   0.0004  0.1460  0.8050  -1.3270   0.0000   0.2435
   3.800   0.4237   0.00600   0.00145   0.0005  0.1392  0.8133  -1.3667   0.0000   0.2434
   3.900   0.4346   0.00605   0.00149   0.0005  0.1326  0.8215  -1.4097   0.0000   0.2433
   4.100   0.4567   0.00614   0.00157   0.0006  0.1213  0.8372  -1.4971   0.0000   0.2430
   4.200   0.4676   0.00619   0.00162   0.0007  0.1155  0.8445  -1.5412   0.0000   0.2429
   4.400   0.4895   0.00629   0.00171   0.0008  0.1041  0.8593  -1.6304   0.0000   0.2426
   4.600   0.5113   0.00639   0.00181   0.0009  0.0947  0.8733  -1.7277   0.0000   0.2422
   4.700   0.5223   0.00644   0.00185   0.0010  0.0909  0.8797  -1.7777   0.0000   0.2421
   4.800   0.5331   0.00650   0.00191   0.0011  0.0863  0.8864  -1.8277   0.0000   0.2419
   4.900   0.5441   0.00655   0.00195   0.0012  0.0826  0.8924  -1.8785   0.0000   0.2418
   5.000   0.5549   0.00661   0.00201   0.0013  0.0780  0.8987  -1.9292   0.0000   0.2416
   5.100   0.5658   0.00666   0.00206   0.0013  0.0748  0.9043  -1.9809   0.0000   0.2414
   5.200   0.5766   0.00672   0.00212   0.0014  0.0710  0.9102  -2.0324   0.0000   0.2412
   5.300   0.5875   0.00677   0.00217   0.0015  0.0686  0.9154  -2.0869   0.0000   0.2411
   5.400   0.5982   0.00683   0.00223   0.0016  0.0653  0.9209  -2.1436   0.0000   0.2409
   5.500   0.6091   0.00688   0.00228   0.0017  0.0631  0.9257  -2.2015   0.0000   0.2407
   5.600   0.6198   0.00694   0.00233   0.0018  0.0605  0.9307  -2.2592   0.0000   0.2405
   5.800   0.6413   0.00706   0.00245   0.0020  0.0555  0.9397  -2.3763   0.0000   0.2401
   5.900   0.6519   0.00713   0.00251   0.0022  0.0526  0.9442  -2.4353   0.0000   0.2399
   6.000   0.6626   0.00719   0.00257   0.0023  0.0509  0.9480  -2.4950   0.0000   0.2396
   6.100   0.6732   0.00725   0.00262   0.0024  0.0491  0.9522  -2.5550   0.0000   0.2394
   6.200   0.6837   0.00732   0.00269   0.0026  0.0469  0.9558  -2.6153   0.0000   0.2392
   6.300   0.6942   0.00738   0.00275   0.0028  0.0455  0.9594  -2.6759   0.0000   0.2389
   6.400   0.7049   0.00744   0.00281   0.0029  0.0442  0.9630  -2.7379   0.0000   0.2387
   6.500   0.7153   0.00751   0.00287   0.0031  0.0425  0.9661  -2.8043   0.0000   0.2384
   6.600   0.7257   0.00758   0.00294   0.0033  0.0407  0.9694  -2.8711   0.0000   0.2381
   6.800   0.7468   0.00771   0.00306   0.0035  0.0386  0.9750  -3.0082   0.0000   0.2377
   6.900   0.7573   0.00779   0.00313   0.0037  0.0370  0.9778  -3.0771   0.0000   0.2374
   7.000   0.7679   0.00786   0.00319   0.0038  0.0355  0.9805  -3.1466   0.0000   0.2372
   7.100   0.7791   0.00793   0.00326   0.0038  0.0347  0.9823  -3.2194   0.0000   0.2372
   7.200   0.7902   0.00800   0.00332   0.0038  0.0337  0.9844  -3.2921   0.0000   0.2372
   7.300   0.8009   0.00808   0.00340   0.0039  0.0325  0.9868  -3.3637   0.0000   0.2370
   7.400   0.8127   0.00817   0.00347   0.0038  0.0311  0.9880  -3.4394   0.0000   0.2372
   7.500   0.8247   0.00824   0.00354   0.0036  0.0305  0.9892  -3.5172   0.0000   0.2374
   7.600   0.8365   0.00832   0.00361   0.0034  0.0299  0.9905  -3.5946   0.0000   0.2376
   7.700   0.8482   0.00840   0.00368   0.0033  0.0291  0.9919  -3.6721   0.0000   0.2377
   7.800   0.8598   0.00849   0.00376   0.0032  0.0282  0.9931  -3.7501   0.0000   0.2378
   7.900   0.8723   0.00859   0.00385   0.0028  0.0270  0.9936  -3.8312   0.0000   0.2381
   8.000   0.8849   0.00867   0.00393   0.0025  0.0263  0.9941  -3.9136   0.0000   0.2385
   8.100   0.8976   0.00875   0.00401   0.0021  0.0259  0.9946  -4.0041   0.0000   0.2388
   8.200   0.9104   0.00883   0.00408   0.0017  0.0254  0.9950  -4.0954   0.0000   0.2392
   8.300   0.9231   0.00892   0.00417   0.0013  0.0247  0.9954  -4.1871   0.0000   0.2395
   8.400   0.9356   0.00902   0.00426   0.0010  0.0240  0.9958  -4.2789   0.0000   0.2398
   8.500   0.9480   0.00914   0.00436   0.0007  0.0230  0.9963  -4.3706   0.0000   0.2400
   8.600   0.9604   0.00924   0.00445   0.0004  0.0222  0.9968  -4.4630   0.0000   0.2402
   8.700   0.9728   0.00931   0.00453   0.0000  0.0220  0.9972  -4.5571   0.0000   0.2405
   8.800   0.9853   0.00940   0.00461  -0.0003  0.0217  0.9976  -4.6522   0.0000   0.2407
   8.900   0.9980   0.00949   0.00470  -0.0007  0.0213  0.9978  -4.7488   0.0000   0.2410
   9.000   1.0106   0.00959   0.00479  -0.0011  0.0208  0.9980  -4.8458   0.0000   0.2412
   9.100   1.0232   0.00969   0.00489  -0.0014  0.0203  0.9983  -4.9430   0.0000   0.2414
   9.200   1.0357   0.00981   0.00500  -0.0018  0.0197  0.9985  -5.0405   0.0000   0.2416
   9.300   1.0480   0.00993   0.00511  -0.0021  0.0190  0.9988  -5.1378   0.0000   0.2418
   9.400   1.0605   0.01004   0.00522  -0.0025  0.0184  0.9991  -5.2358   0.0000   0.2420
   9.500   1.0730   0.01013   0.00531  -0.0028  0.0183  0.9993  -5.3366   0.0000   0.2422
   9.600   1.0855   0.01022   0.00540  -0.0032  0.0182  0.9996  -5.4378   0.0000   0.2423
   9.700   1.0980   0.01031   0.00550  -0.0035  0.0179  0.9998  -5.5395   0.0000   0.2425
   9.800   1.1099   0.01041   0.00559  -0.0037  0.0177  1.0000  -5.6396   0.0000   0.2425
   9.900   1.1184   0.01050   0.00568  -0.0032  0.0174  1.0000  -5.7255   0.0000   0.2419
  10.000   1.1269   0.01059   0.00577  -0.0027  0.0172  1.0000  -5.8120   0.0000   0.2413
  10.100   1.1354   0.01069   0.00587  -0.0022  0.0169  1.0000  -5.8991   0.0000   0.2407
  10.200   1.1440   0.01080   0.00598  -0.0017  0.0165  1.0000  -5.9866   0.0000   0.2401
  10.300   1.1526   0.01091   0.00608  -0.0012  0.0162  1.0000  -6.0745   0.0000   0.2396
  10.400   1.1612   0.01103   0.00620  -0.0008  0.0157  1.0000  -6.1623   0.0000   0.2390
  10.500   1.1699   0.01116   0.00633  -0.0003  0.0153  1.0000  -6.2502   0.0000   0.2385
  10.600   1.1787   0.01128   0.00646   0.0001  0.0150  1.0000  -6.3464   0.0000   0.2380
  10.700   1.1879   0.01137   0.00655   0.0005  0.0149  1.0000  -6.4469   0.0000   0.2376
  10.800   1.1972   0.01146   0.00664   0.0008  0.0149  1.0000  -6.5481   0.0000   0.2371
  10.900   1.2064   0.01155   0.00674   0.0012  0.0148  1.0000  -6.6500   0.0000   0.2367
  11.000   1.2158   0.01164   0.00683   0.0015  0.0146  1.0000  -6.7529   0.0000   0.2363
  11.100   1.2251   0.01175   0.00694   0.0018  0.0145  1.0000  -6.8565   0.0000   0.2359
  11.200   1.2345   0.01185   0.00705   0.0021  0.0143  1.0000  -6.9609   0.0000   0.2356
  11.300   1.2440   0.01196   0.00716   0.0023  0.0141  1.0000  -7.0660   0.0000   0.2352
  11.400   1.2534   0.01208   0.00728   0.0026  0.0139  1.0000  -7.1716   0.0000   0.2349
  11.500   1.2629   0.01220   0.00740   0.0029  0.0137  1.0000  -7.2779   0.0000   0.2345
  11.600   1.2723   0.01233   0.00753   0.0031  0.0135  1.0000  -7.3845   0.0000   0.2342
  11.700   1.2817   0.01246   0.00766   0.0034  0.0133  1.0000  -7.4914   0.0000   0.2339
  11.800   1.2911   0.01260   0.00780   0.0037  0.0131  1.0000  -7.5986   0.0000   0.2335
  11.900   1.3004   0.01275   0.00795   0.0039  0.0128  1.0000  -7.7056   0.0000   0.2332
  12.000   1.3096   0.01290   0.00811   0.0042  0.0125  1.0000  -7.8122   0.0000   0.2329
  12.100   1.3187   0.01307   0.00828   0.0045  0.0122  1.0000  -7.9182   0.0000   0.2325
  12.200   1.3278   0.01325   0.00847   0.0048  0.0119  1.0000  -8.0237   0.0000   0.2321
  12.300   1.3374   0.01336   0.00859   0.0050  0.0119  1.0000  -8.1364   0.0000   0.2319
  12.400   1.3470   0.01348   0.00871   0.0052  0.0118  1.0000  -8.2495   0.0000   0.2316
  12.500   1.3565   0.01360   0.00884   0.0054  0.0118  1.0000  -8.3630   0.0000   0.2313
  12.600   1.3660   0.01373   0.00897   0.0057  0.0118  1.0000  -8.4769   0.0000   0.2310
  12.700   1.3755   0.01385   0.00910   0.0059  0.0117  1.0000  -8.5911   0.0000   0.2307
  12.800   1.3849   0.01398   0.00924   0.0061  0.0116  1.0000  -8.7056   0.0000   0.2304
  12.900   1.3943   0.01412   0.00938   0.0063  0.0116  1.0000  -8.8204   0.0000   0.2301
  13.000   1.4036   0.01425   0.00952   0.0066  0.0115  1.0000  -8.9355   0.0000   0.2298
  13.100   1.4129   0.01439   0.00967   0.0068  0.0114  1.0000  -9.0508   0.0000   0.2295
  13.200   1.4220   0.01454   0.00982   0.0071  0.0113  1.0000  -9.1662   0.0000   0.2292
  13.300   1.4311   0.01468   0.00997   0.0073  0.0112  1.0000  -9.2817   0.0000   0.2289
  13.400   1.4402   0.01484   0.01013   0.0076  0.0111  1.0000  -9.3974   0.0000   0.2285
  13.500   1.4491   0.01499   0.01029   0.0079  0.0110  1.0000  -9.5131   0.0000   0.2282
  13.600   1.4580   0.01516   0.01046   0.0081  0.0108  1.0000  -9.6289   0.0000   0.2279
  13.700   1.4668   0.01532   0.01063   0.0084  0.0107  1.0000  -9.7445   0.0000   0.2275
  13.800   1.4754   0.01550   0.01081   0.0088  0.0106  1.0000  -9.8600   0.0000   0.2272
  13.900   1.4839   0.01568   0.01099   0.0091  0.0105  1.0000  -9.9752   0.0000   0.2268
  14.000   1.4924   0.01586   0.01119   0.0094  0.0103  1.0000  -10.0901   0.0000   0.2265
  14.100   1.5007   0.01606   0.01139   0.0098  0.0102  1.0000  -10.2043   0.0000   0.2261
  14.200   1.5088   0.01626   0.01160   0.0101  0.0100  1.0000  -10.3175   0.0000   0.2257
  14.300   1.5167   0.01647   0.01182   0.0105  0.0098  1.0000  -10.4294   0.0000   0.2253
  14.400   1.5245   0.01670   0.01206   0.0110  0.0097  1.0000  -10.5400   0.0000   0.2249
  14.500   1.5320   0.01694   0.01231   0.0114  0.0095  1.0000  -10.6491   0.0000   0.2244
  14.600   1.5393   0.01719   0.01258   0.0119  0.0093  1.0000  -10.7563   0.0000   0.2240
  14.700   1.5463   0.01745   0.01286   0.0124  0.0092  1.0000  -10.8614   0.0000   0.2235
  14.800   1.5541   0.01764   0.01307   0.0128  0.0091  1.0000  -10.9770   0.0000   0.2231
  14.900   1.5620   0.01783   0.01326   0.0132  0.0091  1.0000  -11.0942   0.0000   0.2227
  15.000   1.5698   0.01801   0.01345   0.0136  0.0091  1.0000  -11.2113   0.0000   0.2223
  15.100   1.5775   0.01820   0.01365   0.0140  0.0091  1.0000  -11.3283   0.0000   0.2219
  15.200   1.5850   0.01838   0.01385   0.0145  0.0091  1.0000  -11.4448   0.0000   0.2215
  15.300   1.5924   0.01857   0.01405   0.0149  0.0090  1.0000  -11.5606   0.0000   0.2211
  15.400   1.5993   0.01877   0.01425   0.0155  0.0090  1.0000  -11.6743   0.0000   0.2206
  15.500   1.6056   0.01896   0.01446   0.0161  0.0090  1.0000  -11.7896   0.0000   0.2200
  15.600   1.6115   0.01916   0.01467   0.0168  0.0090  1.0000  -11.9037   0.0000   0.2194
  15.700   1.6172   0.01937   0.01489   0.0176  0.0089  1.0000  -12.0169   0.0000   0.2188
  15.800   1.6228   0.01959   0.01513   0.0183  0.0089  1.0000  -12.1296   0.0000   0.2182
  15.900   1.6283   0.01982   0.01537   0.0190  0.0089  1.0000  -12.2420   0.0000   0.2176
  16.000   1.6337   0.02005   0.01562   0.0197  0.0088  1.0000  -12.3539   0.0000   0.2170
  16.100   1.6390   0.02030   0.01588   0.0204  0.0088  1.0000  -12.4653   0.0000   0.2165
  16.200   1.6443   0.02056   0.01616   0.0211  0.0087  1.0000  -12.5762   0.0000   0.2159
  16.300   1.6493   0.02084   0.01645   0.0218  0.0087  1.0000  -12.6861   0.0000   0.2153
  16.400   1.6542   0.02112   0.01675   0.0224  0.0086  1.0000  -12.7954   0.0000   0.2148
  16.500   1.6591   0.02142   0.01706   0.0231  0.0086  1.0000  -12.9041   0.0000   0.2142
  16.600   1.6637   0.02173   0.01739   0.0237  0.0085  1.0000  -13.0117   0.0000   0.2137
  16.700   1.6682   0.02206   0.01773   0.0244  0.0085  1.0000  -13.1185   0.0000   0.2131
  16.800   1.6726   0.02241   0.01810   0.0250  0.0084  1.0000  -13.2247   0.0000   0.2126
  16.900   1.6768   0.02277   0.01847   0.0256  0.0084  1.0000  -13.3294   0.0000   0.2120
  17.000   1.6809   0.02315   0.01887   0.0262  0.0083  1.0000  -13.4333   0.0000   0.2115
  17.100   1.6848   0.02355   0.01929   0.0268  0.0083  1.0000  -13.5364   0.0000   0.2110
  17.200   1.6886   0.02397   0.01972   0.0273  0.0082  1.0000  -13.6380   0.0000   0.2105
  17.300   1.6921   0.02441   0.02019   0.0279  0.0082  1.0000  -13.7379   0.0000   0.2100
  17.400   1.6955   0.02488   0.02067   0.0284  0.0081  1.0000  -13.8368   0.0000   0.2095
  17.500   1.6987   0.02537   0.02118   0.0289  0.0081  1.0000  -13.9347   0.0000   0.2090
  17.600   1.7017   0.02589   0.02172   0.0293  0.0080  1.0000  -14.0306   0.0000   0.2086
  17.700   1.7045   0.02643   0.02229   0.0298  0.0080  1.0000  -14.1244   0.0000   0.2081
  17.800   1.7070   0.02701   0.02289   0.0302  0.0079  1.0000  -14.2167   0.0000   0.2077
  17.900   1.7095   0.02762   0.02352   0.0306  0.0078  1.0000  -14.3075   0.0000   0.2073
  18.000   1.7116   0.02827   0.02419   0.0309  0.0078  1.0000  -14.3963   0.0000   0.2069
  18.100   1.7135   0.02896   0.02490   0.0312  0.0077  1.0000  -14.4819   0.0000   0.2065
  18.200   1.7150   0.02970   0.02566   0.0315  0.0077  1.0000  -14.5644   0.0000   0.2061
  18.300   1.7163   0.03048   0.02646   0.0317  0.0076  1.0000  -14.6444   0.0000   0.2057
  18.400   1.7173   0.03131   0.02732   0.0319  0.0075  1.0000  -14.7216   0.0000   0.2054
  18.500   1.7180   0.03219   0.02823   0.0320  0.0075  1.0000  -14.7958   0.0000   0.2051
  18.600   1.7183   0.03313   0.02920   0.0320  0.0074  1.0000  -14.8665   0.0000   0.2048
  18.700   1.7182   0.03413   0.03023   0.0321  0.0073  1.0000  -14.9327   0.0000   0.2046
  18.800   1.7177   0.03520   0.03133   0.0320  0.0073  1.0000  -14.9946   0.0000   0.2043
  18.900   1.7168   0.03634   0.03251   0.0319  0.0072  1.0000  -15.0524   0.0000   0.2041
  19.000   1.7156   0.03756   0.03376   0.0317  0.0072  1.0000  -15.1058   0.0000   0.2039
  19.100   1.7138   0.03886   0.03510   0.0315  0.0071  1.0000  -15.1544   0.0000   0.2038
  19.200   1.7116   0.04025   0.03652   0.0312  0.0071  1.0000  -15.1977   0.0000   0.2037
  19.300   1.7087   0.04172   0.03804   0.0308  0.0070  1.0000  -15.2342   0.0000   0.2036
  19.400   1.7053   0.04330   0.03966   0.0303  0.0070  1.0000  -15.2646   0.0000   0.2036
  19.500   1.7013   0.04497   0.04138   0.0298  0.0069  1.0000  -15.2890   0.0000   0.2036
  19.600   1.6968   0.04676   0.04320   0.0291  0.0069  1.0000  -15.3071   0.0000   0.2037
  19.700   1.6916   0.04866   0.04516   0.0284  0.0068  1.0000  -15.3174   0.0000   0.2038
  19.800   1.6856   0.05070   0.04724   0.0276  0.0068  1.0000  -15.3191   0.0000   0.2039
  19.900   1.6788   0.05286   0.04945   0.0267  0.0068  1.0000  -15.3117   0.0000   0.2041
  20.000   1.6714   0.05513   0.05177   0.0257  0.0068  1.0000  -15.2975   0.0000   0.2043
  20.100   1.6644   0.05740   0.05409   0.0247  0.0067  1.0000  -15.2861   0.0000   0.2046
  20.200   1.6577   0.05966   0.05640   0.0236  0.0067  1.0000  -15.2778   0.0000   0.2049
  20.300   1.6502   0.06208   0.05886   0.0225  0.0067  1.0000  -15.2593   0.0000   0.2052
  20.400   1.6416   0.06465   0.06148   0.0213  0.0067  1.0000  -15.2291   0.0000   0.2056
  20.500   1.6321   0.06737   0.06425   0.0200  0.0067  1.0000  -15.1873   0.0000   0.2060
  20.600   1.6217   0.07025   0.06718   0.0186  0.0067  1.0000  -15.1354   0.0000   0.2065
  20.700   1.6098   0.07342   0.07040   0.0170  0.0067  1.0000  -15.0642   0.0000   0.2071
  20.800   1.5966   0.07682   0.07386   0.0153  0.0067  1.0000  -14.9771   0.0000   0.2078
  20.900   1.5826   0.08036   0.07745   0.0135  0.0067  1.0000  -14.8800   0.0000   0.2085
  21.000   1.5657   0.08435   0.08152   0.0115  0.0067  1.0000  -14.7479   0.0000   0.2095
  21.100   1.5481   0.08854   0.08577   0.0093  0.0067  1.0000  -14.6037   0.0000   0.2105
  21.200   1.5279   0.09320   0.09050   0.0069  0.0067  1.0000  -14.4276   0.0000   0.2117
  21.400   1.4892   0.10236   0.09979   0.0021  0.0068  1.0000  -14.0834   0.0000   0.2142
  21.500   1.4703   0.10691   0.10440  -0.0003  0.0068  1.0000  -13.9121   0.0000   0.2156
  21.600   1.4517   0.11149   0.10905  -0.0027  0.0068  1.0000  -13.7388   0.0000   0.2170
  21.700   1.4326   0.11624   0.11386  -0.0053  0.0069  1.0000  -13.5544   0.0000   0.2186
  21.800   1.4119   0.12131   0.11900  -0.0081  0.0069  1.0000  -13.3448   0.0000   0.2204
  21.900   1.3915   0.12633   0.12408  -0.0109  0.0069  1.0000  -13.1344   0.0000   0.2222
  22.000   1.3716   0.13140   0.12921  -0.0137  0.0070  1.0000  -12.9219   0.0000   0.2242
  22.100   1.3505   0.13680   0.13467  -0.0169  0.0070  1.0000  -12.6864   0.0000   0.2265
  22.200   1.3290   0.14238   0.14032  -0.0202  0.0070  1.0000  -12.4363   0.0000   0.2289
  22.300   1.3088   0.14780   0.14581  -0.0235  0.0071  1.0000  -12.1940   0.0000   0.2315
  22.400   1.2890   0.15318   0.15125  -0.0268  0.0071  1.0000  -11.9496   0.0000   0.2342
  22.500   1.2699   0.15858   0.15672  -0.0302  0.0071  1.0000  -11.7043   0.0000   0.2370
  22.600   1.2514   0.16403   0.16222  -0.0337  0.0072  1.0000  -11.4548   0.0000   0.2399
  22.700   1.2334   0.16950   0.16775  -0.0372  0.0072  1.0000  -11.2023   0.0000   0.2431
  22.800   1.2173   0.17471   0.17301  -0.0406  0.0072  1.0000  -10.9667   0.0000   0.2461
  22.900   1.2021   0.17981   0.17817  -0.0440  0.0072  1.0000  -10.7344   0.0000   0.2492
  23.000   1.1876   0.18485   0.18325  -0.0474  0.0072  1.0000  -10.5030   0.0000   0.2524
  23.100   1.1742   0.18967   0.18813  -0.0507  0.0071  1.0000  -10.2818   0.0000   0.2555
  23.200   1.1632   0.19408   0.19257  -0.0537  0.0071  1.0000  -10.0900   0.0000   0.2584
  23.300   1.1551   0.19785   0.19637  -0.0563  0.0071  1.0000  -9.9454   0.0000   0.2608
  23.400   1.1454   0.20213   0.20069  -0.0592  0.0070  1.0000  -9.7597   0.0000   0.2637
  23.500   1.1402   0.20530   0.20388  -0.0614  0.0069  1.0000  -9.6549   0.0000   0.2657
  23.600   1.1326   0.20916   0.20778  -0.0641  0.0069  1.0000  -9.4963   0.0000   0.2683
  23.700   1.1280   0.21225   0.21090  -0.0663  0.0068  1.0000  -9.3927   0.0000   0.2703
  23.800   1.1257   0.21476   0.21342  -0.0680  0.0067  1.0000  -9.3340   0.0000   0.2719
  23.900   1.1226   0.21751   0.21619  -0.0700  0.0067  1.0000  -9.2569   0.0000   0.2736
  24.000   1.1203   0.22005   0.21875  -0.0718  0.0067  1.0000  -9.1937   0.0000   0.2751
  24.100   1.1197   0.22213   0.22084  -0.0733  0.0067  1.0000  -9.1657   0.0000   0.2763
  24.200   1.1192   0.22415   0.22288  -0.0748  0.0067  1.0000  -9.1409   0.0000   0.2775
  24.300   1.1163   0.22691   0.22566  -0.0768  0.0067  1.0000  -9.0561   0.0000   0.2793
  24.400   1.1147   0.22933   0.22810  -0.0785  0.0067  1.0000  -8.9970   0.0000   0.2808
  24.500   1.1145   0.23133   0.23011  -0.0800  0.0067  1.0000  -8.9725   0.0000   0.2819
  24.600   1.1144   0.23332   0.23211  -0.0815  0.0067  1.0000  -8.9465   0.0000   0.2830
  24.700   1.1136   0.23551   0.23432  -0.0831  0.0066  1.0000  -8.9031   0.0000   0.2843
  24.800   1.1101   0.23859   0.23742  -0.0853  0.0066  1.0000  -8.7868   0.0000   0.2864
  24.900   1.1100   0.24060   0.23944  -0.0868  0.0066  1.0000  -8.7547   0.0000   0.2875
  25.000   1.1099   0.24259   0.24145  -0.0883  0.0066  1.0000  -8.7222   0.0000   0.2887


