xflr5 v6.47

 Calculated polar for: NACA 0012

 1 1 Reynolds number fixed          Mach number fixed         

 xtrf =   1.000 (top)        1.000 (bottom)
 Mach =   0.000     Re =     5.000 e 6     Ncrit =   9.000

  alpha     CL        CD       CDp       Cm    Top Xtr Bot Xtr   Cpmin    Chinge    XCp    
 ------- -------- --------- --------- -------- ------- ------- -------- --------- ---------
 -25.000  -1.1298   0.23515   0.23402   0.0836  1.0000  0.0064  -9.2927   0.0000   0.2825
 -24.900  -1.1312   0.23282   0.23168   0.0818  1.0000  0.0064  -9.3479   0.0000   0.2811
 -24.800  -1.1317   0.23077   0.22961   0.0803  1.0000  0.0065  -9.3802   0.0000   0.2799
 -24.700  -1.1324   0.22870   0.22752   0.0787  1.0000  0.0065  -9.4135   0.0000   0.2787
 -24.600  -1.1380   0.22519   0.22398   0.0762  1.0000  0.0065  -9.5615   0.0000   0.2762
 -24.500  -1.1393   0.22296   0.22174   0.0745  1.0000  0.0065  -9.6057   0.0000   0.2749
 -24.400  -1.1405   0.22077   0.21954   0.0729  1.0000  0.0066  -9.6431   0.0000   0.2736
 -24.300  -1.1455   0.21757   0.21631   0.0705  1.0000  0.0066  -9.7629   0.0000   0.2714
 -24.200  -1.1492   0.21472   0.21344   0.0685  1.0000  0.0066  -9.8499   0.0000   0.2696
 -24.100  -1.1515   0.21226   0.21097   0.0667  1.0000  0.0066  -9.9046   0.0000   0.2682
 -24.000  -1.1594   0.20837   0.20704   0.0639  1.0000  0.0066  -10.0708   0.0000   0.2655
 -23.900  -1.1627   0.20575   0.20440   0.0620  1.0000  0.0066  -10.1375   0.0000   0.2639
 -23.800  -1.1720   0.20161   0.20022   0.0591  1.0000  0.0066  -10.3169   0.0000   0.2611
 -23.700  -1.1767   0.19869   0.19728   0.0570  1.0000  0.0067  -10.4024   0.0000   0.2593
 -23.600  -1.1881   0.19416   0.19271   0.0538  1.0000  0.0067  -10.6079   0.0000   0.2563
 -23.500  -1.1950   0.19083   0.18935   0.0515  1.0000  0.0067  -10.7210   0.0000   0.2543
 -23.400  -1.2086   0.18596   0.18443   0.0481  1.0000  0.0067  -10.9487   0.0000   0.2511
 -23.300  -1.2246   0.18072   0.17914   0.0445  1.0000  0.0067  -11.2032   0.0000   0.2478
 -23.200  -1.2421   0.17518   0.17354   0.0408  1.0000  0.0067  -11.4723   0.0000   0.2444
 -23.100  -1.2617   0.16931   0.16761   0.0368  1.0000  0.0067  -11.7631   0.0000   0.2408
 -23.000  -1.2892   0.16195   0.16017   0.0320  1.0000  0.0067  -12.1591   0.0000   0.2366
 -22.900  -1.3132   0.15553   0.15368   0.0278  1.0000  0.0067  -12.4845   0.0000   0.2331
 -22.800  -1.3434   0.14813   0.14619   0.0231  1.0000  0.0066  -12.8815   0.0000   0.2293
 -22.700  -1.3703   0.14157   0.13954   0.0191  1.0000  0.0066  -13.2152   0.0000   0.2262
 -22.600  -1.4017   0.13425   0.13213   0.0146  1.0000  0.0066  -13.5977   0.0000   0.2230
 -22.500  -1.4283   0.12802   0.12583   0.0110  1.0000  0.0066  -13.9016   0.0000   0.2204
 -22.400  -1.4575   0.12149   0.11921   0.0073  1.0000  0.0066  -14.2279   0.0000   0.2180
 -22.300  -1.4854   0.11530   0.11293   0.0038  1.0000  0.0066  -14.5280   0.0000   0.2158
 -22.200  -1.5090   0.10990   0.10746   0.0008  1.0000  0.0066  -14.7677   0.0000   0.2141
 -22.100  -1.5339   0.10436   0.10184  -0.0022  1.0000  0.0066  -15.0166   0.0000   0.2124
 -22.000  -1.5550   0.09956   0.09698  -0.0047  1.0000  0.0066  -15.2138   0.0000   0.2111
 -21.900  -1.5758   0.09485   0.09220  -0.0072  1.0000  0.0066  -15.4037   0.0000   0.2098
 -21.800  -1.5947   0.09046   0.08774  -0.0094  1.0000  0.0066  -15.5672   0.0000   0.2088
 -21.700  -1.6113   0.08650   0.08372  -0.0115  1.0000  0.0066  -15.7001   0.0000   0.2079
 -21.600  -1.6276   0.08262   0.07977  -0.0134  1.0000  0.0066  -15.8281   0.0000   0.2070
 -21.500  -1.6427   0.07899   0.07609  -0.0152  1.0000  0.0066  -15.9385   0.0000   0.2063
 -21.400  -1.6555   0.07573   0.07277  -0.0168  1.0000  0.0066  -16.0212   0.0000   0.2057
 -21.300  -1.6673   0.07261   0.06960  -0.0184  1.0000  0.0066  -16.0918   0.0000   0.2052
 -21.200  -1.6784   0.06963   0.06657  -0.0198  1.0000  0.0066  -16.1526   0.0000   0.2047
 -21.100  -1.6887   0.06682   0.06371  -0.0212  1.0000  0.0066  -16.2024   0.0000   0.2042
 -21.000  -1.6980   0.06419   0.06103  -0.0224  1.0000  0.0066  -16.2400   0.0000   0.2039
 -20.900  -1.7062   0.06174   0.05854  -0.0235  1.0000  0.0066  -16.2648   0.0000   0.2036
 -20.800  -1.7133   0.05943   0.05619  -0.0245  1.0000  0.0066  -16.2774   0.0000   0.2033
 -20.700  -1.7198   0.05725   0.05397  -0.0255  1.0000  0.0066  -16.2817   0.0000   0.2031
 -20.600  -1.7256   0.05518   0.05186  -0.0264  1.0000  0.0066  -16.2782   0.0000   0.2029
 -20.500  -1.7309   0.05323   0.04986  -0.0272  1.0000  0.0066  -16.2675   0.0000   0.2028
 -20.400  -1.7355   0.05137   0.04797  -0.0279  1.0000  0.0066  -16.2504   0.0000   0.2027
 -20.300  -1.7397   0.04962   0.04618  -0.0286  1.0000  0.0066  -16.2270   0.0000   0.2027
 -20.200  -1.7432   0.04796   0.04449  -0.0292  1.0000  0.0066  -16.1961   0.0000   0.2026
 -20.100  -1.7461   0.04639   0.04288  -0.0298  1.0000  0.0066  -16.1590   0.0000   0.2026
 -20.000  -1.7485   0.04489   0.04135  -0.0303  1.0000  0.0066  -16.1167   0.0000   0.2026
 -19.900  -1.7505   0.04347   0.03990  -0.0307  1.0000  0.0066  -16.0695   0.0000   0.2027
 -19.800  -1.7522   0.04213   0.03852  -0.0311  1.0000  0.0066  -16.0179   0.0000   0.2027
 -19.700  -1.7534   0.04085   0.03722  -0.0314  1.0000  0.0067  -15.9623   0.0000   0.2028
 -19.600  -1.7543   0.03965   0.03598  -0.0317  1.0000  0.0067  -15.9021   0.0000   0.2029
 -19.500  -1.7546   0.03850   0.03481  -0.0319  1.0000  0.0067  -15.8370   0.0000   0.2031
 -19.400  -1.7546   0.03742   0.03370  -0.0321  1.0000  0.0067  -15.7681   0.0000   0.2032
 -19.300  -1.7543   0.03638   0.03264  -0.0322  1.0000  0.0067  -15.6960   0.0000   0.2034
 -19.200  -1.7537   0.03540   0.03163  -0.0323  1.0000  0.0067  -15.6214   0.0000   0.2036
 -19.100  -1.7529   0.03446   0.03066  -0.0324  1.0000  0.0067  -15.5444   0.0000   0.2038
 -19.000  -1.7520   0.03357   0.02974  -0.0324  1.0000  0.0067  -15.4653   0.0000   0.2041
 -18.900  -1.7507   0.03272   0.02887  -0.0323  1.0000  0.0067  -15.3832   0.0000   0.2043
 -18.800  -1.7490   0.03192   0.02805  -0.0322  1.0000  0.0067  -15.2978   0.0000   0.2046
 -18.700  -1.7472   0.03115   0.02726  -0.0321  1.0000  0.0067  -15.2103   0.0000   0.2049
 -18.600  -1.7451   0.03042   0.02650  -0.0320  1.0000  0.0067  -15.1213   0.0000   0.2052
 -18.500  -1.7430   0.02972   0.02578  -0.0318  1.0000  0.0067  -15.0309   0.0000   0.2055
 -18.400  -1.7406   0.02906   0.02510  -0.0315  1.0000  0.0067  -14.9386   0.0000   0.2059
 -18.300  -1.7381   0.02843   0.02445  -0.0313  1.0000  0.0067  -14.8447   0.0000   0.2062
 -18.200  -1.7353   0.02783   0.02383  -0.0310  1.0000  0.0067  -14.7489   0.0000   0.2066
 -18.100  -1.7333   0.02718   0.02315  -0.0306  1.0000  0.0068  -14.6617   0.0000   0.2070
 -18.000  -1.7320   0.02649   0.02243  -0.0302  1.0000  0.0069  -14.5811   0.0000   0.2075
 -17.900  -1.7304   0.02585   0.02177  -0.0297  1.0000  0.0069  -14.4975   0.0000   0.2080
 -17.800  -1.7285   0.02526   0.02114  -0.0291  1.0000  0.0070  -14.4111   0.0000   0.2085
 -17.700  -1.7262   0.02470   0.02056  -0.0286  1.0000  0.0071  -14.3216   0.0000   0.2090
 -17.600  -1.7237   0.02417   0.02001  -0.0280  1.0000  0.0072  -14.2300   0.0000   0.2096
 -17.500  -1.7210   0.02367   0.01949  -0.0274  1.0000  0.0073  -14.1367   0.0000   0.2101
 -17.400  -1.7180   0.02321   0.01900  -0.0268  1.0000  0.0074  -14.0411   0.0000   0.2107
 -17.300  -1.7148   0.02277   0.01854  -0.0261  1.0000  0.0074  -13.9430   0.0000   0.2112
 -17.200  -1.7114   0.02235   0.01811  -0.0255  1.0000  0.0075  -13.8434   0.0000   0.2118
 -17.100  -1.7078   0.02196   0.01770  -0.0248  1.0000  0.0076  -13.7424   0.0000   0.2124
 -17.000  -1.7039   0.02159   0.01731  -0.0241  1.0000  0.0077  -13.6393   0.0000   0.2129
 -16.900  -1.6999   0.02124   0.01695  -0.0234  1.0000  0.0078  -13.5349   0.0000   0.2135
 -16.800  -1.6957   0.02090   0.01660  -0.0227  1.0000  0.0079  -13.4294   0.0000   0.2141
 -16.700  -1.6914   0.02059   0.01627  -0.0220  1.0000  0.0079  -13.3224   0.0000   0.2147
 -16.600  -1.6869   0.02028   0.01595  -0.0212  1.0000  0.0080  -13.2145   0.0000   0.2153
 -16.500  -1.6822   0.02000   0.01566  -0.0205  1.0000  0.0081  -13.1054   0.0000   0.2159
 -16.400  -1.6774   0.01973   0.01537  -0.0197  1.0000  0.0081  -12.9955   0.0000   0.2165
 -16.300  -1.6724   0.01947   0.01510  -0.0190  1.0000  0.0082  -12.8850   0.0000   0.2171
 -16.200  -1.6674   0.01922   0.01484  -0.0182  1.0000  0.0083  -12.7737   0.0000   0.2178
 -16.100  -1.6622   0.01898   0.01459  -0.0174  1.0000  0.0083  -12.6622   0.0000   0.2184
 -16.000  -1.6569   0.01875   0.01435  -0.0166  1.0000  0.0084  -12.5500   0.0000   0.2190
 -15.900  -1.6515   0.01854   0.01413  -0.0159  1.0000  0.0084  -12.4368   0.0000   0.2197
 -15.800  -1.6457   0.01833   0.01391  -0.0151  1.0000  0.0085  -12.3215   0.0000   0.2203
 -15.700  -1.6392   0.01813   0.01369  -0.0145  1.0000  0.0086  -12.2015   0.0000   0.2208
 -15.600  -1.6321   0.01793   0.01348  -0.0140  1.0000  0.0086  -12.0781   0.0000   0.2212
 -15.500  -1.6247   0.01773   0.01328  -0.0136  1.0000  0.0087  -11.9534   0.0000   0.2217
 -15.400  -1.6171   0.01754   0.01308  -0.0131  1.0000  0.0087  -11.8286   0.0000   0.2221
 -15.300  -1.6094   0.01736   0.01289  -0.0127  1.0000  0.0088  -11.7090   0.0000   0.2225
 -15.200  -1.6016   0.01718   0.01270  -0.0123  1.0000  0.0088  -11.5890   0.0000   0.2229
 -15.100  -1.5936   0.01700   0.01251  -0.0119  1.0000  0.0089  -11.4686   0.0000   0.2233
 -15.000  -1.5855   0.01683   0.01233  -0.0116  1.0000  0.0089  -11.3480   0.0000   0.2237
 -14.900  -1.5772   0.01666   0.01216  -0.0112  1.0000  0.0090  -11.2272   0.0000   0.2240
 -14.800  -1.5689   0.01649   0.01198  -0.0109  1.0000  0.0090  -11.1064   0.0000   0.2244
 -14.700  -1.5605   0.01633   0.01181  -0.0105  1.0000  0.0090  -10.9855   0.0000   0.2248
 -14.600  -1.5520   0.01617   0.01164  -0.0102  1.0000  0.0091  -10.8647   0.0000   0.2251
 -14.500  -1.5435   0.01601   0.01148  -0.0099  1.0000  0.0091  -10.7440   0.0000   0.2255
 -14.400  -1.5348   0.01586   0.01131  -0.0096  1.0000  0.0091  -10.6234   0.0000   0.2258
 -14.300  -1.5261   0.01570   0.01115  -0.0093  1.0000  0.0091  -10.5028   0.0000   0.2262
 -14.200  -1.5173   0.01555   0.01099  -0.0090  1.0000  0.0091  -10.3823   0.0000   0.2265
 -14.100  -1.5084   0.01540   0.01084  -0.0087  1.0000  0.0091  -10.2619   0.0000   0.2268
 -14.000  -1.4999   0.01523   0.01065  -0.0084  1.0000  0.0092  -10.1459   0.0000   0.2272
 -13.900  -1.4915   0.01502   0.01043  -0.0080  1.0000  0.0094  -10.0338   0.0000   0.2276
 -13.800  -1.4831   0.01483   0.01023  -0.0077  1.0000  0.0096  -9.9209   0.0000   0.2279
 -13.700  -1.4745   0.01464   0.01003  -0.0074  1.0000  0.0098  -9.8072   0.0000   0.2283
 -13.600  -1.4658   0.01446   0.00985  -0.0071  1.0000  0.0100  -9.6928   0.0000   0.2286
 -13.500  -1.4569   0.01429   0.00967  -0.0068  1.0000  0.0102  -9.5778   0.0000   0.2290
 -13.400  -1.4480   0.01412   0.00950  -0.0065  1.0000  0.0104  -9.4624   0.0000   0.2293
 -13.300  -1.4390   0.01396   0.00934  -0.0062  1.0000  0.0106  -9.3466   0.0000   0.2297
 -13.200  -1.4298   0.01381   0.00918  -0.0059  1.0000  0.0107  -9.2307   0.0000   0.2300
 -13.100  -1.4206   0.01366   0.00903  -0.0057  1.0000  0.0108  -9.1148   0.0000   0.2303
 -13.000  -1.4114   0.01351   0.00889  -0.0054  1.0000  0.0110  -8.9990   0.0000   0.2306
 -12.900  -1.4020   0.01337   0.00874  -0.0052  1.0000  0.0111  -8.8833   0.0000   0.2309
 -12.800  -1.3926   0.01324   0.00861  -0.0050  1.0000  0.0112  -8.7678   0.0000   0.2312
 -12.700  -1.3831   0.01311   0.00848  -0.0048  1.0000  0.0113  -8.6526   0.0000   0.2315
 -12.600  -1.3736   0.01299   0.00835  -0.0046  1.0000  0.0114  -8.5376   0.0000   0.2318
 -12.500  -1.3640   0.01286   0.00822  -0.0043  1.0000  0.0115  -8.4231   0.0000   0.2321
 -12.400  -1.3544   0.01274   0.00810  -0.0041  1.0000  0.0116  -8.3088   0.0000   0.2324
 -12.300  -1.3447   0.01263   0.00798  -0.0039  1.0000  0.0117  -8.1950   0.0000   0.2327
 -12.200  -1.3350   0.01252   0.00786  -0.0037  1.0000  0.0117  -8.0816   0.0000   0.2330
 -12.100  -1.3253   0.01240   0.00775  -0.0035  1.0000  0.0118  -7.9687   0.0000   0.2332
 -12.000  -1.3156   0.01230   0.00763  -0.0033  1.0000  0.0118  -7.8564   0.0000   0.2335
 -11.900  -1.3059   0.01219   0.00753  -0.0031  1.0000  0.0119  -7.7446   0.0000   0.2338
 -11.800  -1.2961   0.01209   0.00742  -0.0029  1.0000  0.0119  -7.6334   0.0000   0.2341
 -11.700  -1.2866   0.01197   0.00729  -0.0027  1.0000  0.0120  -7.5249   0.0000   0.2344
 -11.600  -1.2773   0.01183   0.00715  -0.0024  1.0000  0.0123  -7.4197   0.0000   0.2348
 -11.500  -1.2680   0.01169   0.00701  -0.0021  1.0000  0.0126  -7.3146   0.0000   0.2352
 -11.400  -1.2587   0.01156   0.00688  -0.0018  1.0000  0.0130  -7.2099   0.0000   0.2356
 -11.300  -1.2495   0.01143   0.00676  -0.0015  1.0000  0.0133  -7.1055   0.0000   0.2359
 -11.200  -1.2403   0.01132   0.00664  -0.0011  1.0000  0.0135  -7.0017   0.0000   0.2364
 -11.100  -1.2312   0.01120   0.00653  -0.0008  1.0000  0.0138  -6.8987   0.0000   0.2368
 -11.000  -1.2221   0.01109   0.00642  -0.0004  1.0000  0.0140  -6.7964   0.0000   0.2372
 -10.900  -1.2130   0.01099   0.00632  -0.0000  1.0000  0.0142  -6.6947   0.0000   0.2377
 -10.800  -1.2039   0.01089   0.00622   0.0003  1.0000  0.0144  -6.5934   0.0000   0.2381
 -10.700  -1.1949   0.01080   0.00613   0.0007  1.0000  0.0145  -6.4929   0.0000   0.2386
 -10.600  -1.1859   0.01071   0.00604   0.0011  1.0000  0.0147  -6.3932   0.0000   0.2391
 -10.500  -1.1769   0.01063   0.00595   0.0015  1.0000  0.0148  -6.2944   0.0000   0.2396
 -10.400  -1.1680   0.01054   0.00587   0.0020  1.0000  0.0149  -6.2013   0.0000   0.2401
 -10.300  -1.1592   0.01046   0.00578   0.0024  1.0000  0.0150  -6.1107   0.0000   0.2406
 -10.200  -1.1505   0.01039   0.00570   0.0029  1.0000  0.0150  -6.0210   0.0000   0.2412
 -10.100  -1.1393   0.01027   0.00559   0.0028  0.9999  0.0154  -5.9229   0.0000   0.2413
 -10.000  -1.1272   0.01014   0.00547   0.0026  0.9996  0.0160  -5.8212   0.0000   0.2412
  -9.900  -1.1151   0.01002   0.00535   0.0023  0.9994  0.0165  -5.7195   0.0000   0.2411
  -9.800  -1.1029   0.00991   0.00525   0.0020  0.9992  0.0169  -5.6179   0.0000   0.2409
  -9.700  -1.0906   0.00980   0.00514   0.0017  0.9989  0.0172  -5.5165   0.0000   0.2408
  -9.600  -1.0783   0.00970   0.00505   0.0013  0.9987  0.0176  -5.4155   0.0000   0.2407
  -9.500  -1.0659   0.00961   0.00496   0.0010  0.9984  0.0179  -5.3148   0.0000   0.2405
  -9.400  -1.0534   0.00952   0.00487   0.0007  0.9982  0.0181  -5.2146   0.0000   0.2403
  -9.300  -1.0409   0.00944   0.00479   0.0003  0.9979  0.0183  -5.1148   0.0000   0.2401
  -9.200  -1.0283   0.00935   0.00471  -0.0001  0.9977  0.0184  -5.0155   0.0000   0.2399
  -9.100  -1.0157   0.00926   0.00462  -0.0004  0.9975  0.0188  -4.9176   0.0000   0.2396
  -9.000  -1.0035   0.00916   0.00452  -0.0007  0.9972  0.0195  -4.8226   0.0000   0.2395
  -8.900  -0.9914   0.00905   0.00442  -0.0009  0.9967  0.0202  -4.7282   0.0000   0.2393
  -8.800  -0.9792   0.00895   0.00433  -0.0012  0.9963  0.0207  -4.6337   0.0000   0.2391
  -8.700  -0.9668   0.00886   0.00424  -0.0016  0.9958  0.0212  -4.5393   0.0000   0.2389
  -8.600  -0.9543   0.00877   0.00416  -0.0019  0.9954  0.0216  -4.4453   0.0000   0.2386
  -8.500  -0.9420   0.00869   0.00409  -0.0022  0.9948  0.0220  -4.3523   0.0000   0.2384
  -8.400  -0.9296   0.00862   0.00402  -0.0025  0.9942  0.0222  -4.2599   0.0000   0.2382
  -8.300  -0.9173   0.00853   0.00394  -0.0028  0.9936  0.0230  -4.1694   0.0000   0.2379
  -8.200  -0.9050   0.00843   0.00385  -0.0031  0.9930  0.0240  -4.0794   0.0000   0.2377
  -8.100  -0.8938   0.00834   0.00377  -0.0031  0.9915  0.0248  -3.9941   0.0000   0.2377
  -8.000  -0.8824   0.00826   0.00369  -0.0032  0.9900  0.0254  -3.9094   0.0000   0.2377
  -7.900  -0.8707   0.00819   0.00363  -0.0033  0.9887  0.0259  -3.8296   0.0000   0.2376
  -7.800  -0.8589   0.00812   0.00356  -0.0035  0.9875  0.0263  -3.7499   0.0000   0.2374
  -7.700  -0.8479   0.00806   0.00350  -0.0034  0.9855  0.0269  -3.6741   0.0000   0.2375
  -7.600  -0.8372   0.00797   0.00342  -0.0033  0.9832  0.0280  -3.5999   0.0000   0.2377
  -7.500  -0.8264   0.00789   0.00335  -0.0033  0.9811  0.0289  -3.5257   0.0000   0.2378
  -7.400  -0.8157   0.00782   0.00328  -0.0032  0.9788  0.0297  -3.4525   0.0000   0.2380
  -7.300  -0.8052   0.00776   0.00322  -0.0030  0.9760  0.0304  -3.3802   0.0000   0.2382
  -7.200  -0.7946   0.00770   0.00317  -0.0028  0.9733  0.0308  -3.3085   0.0000   0.2385
  -7.100  -0.7841   0.00763   0.00310  -0.0027  0.9705  0.0320  -3.2377   0.0000   0.2387
  -7.000  -0.7737   0.00756   0.00303  -0.0025  0.9672  0.0333  -3.1678   0.0000   0.2390
  -6.800  -0.7527   0.00743   0.00291  -0.0022  0.9608  0.0353  -3.0284   0.0000   0.2395
  -6.700  -0.7421   0.00738   0.00285  -0.0021  0.9571  0.0363  -2.9595   0.0000   0.2398
  -6.600  -0.7317   0.00730   0.00278  -0.0019  0.9536  0.0382  -2.8916   0.0000   0.2400
  -6.500  -0.7210   0.00724   0.00272  -0.0018  0.9496  0.0395  -2.8234   0.0000   0.2402
  -6.300  -0.6995   0.00714   0.00261  -0.0016  0.9415  0.0418  -2.6919   0.0000   0.2406
  -6.200  -0.6889   0.00707   0.00255  -0.0014  0.9369  0.0437  -2.6309   0.0000   0.2409
  -6.100  -0.6780   0.00701   0.00249  -0.0013  0.9326  0.0452  -2.5696   0.0000   0.2411
  -6.000  -0.6671   0.00697   0.00244  -0.0013  0.9276  0.0462  -2.5085   0.0000   0.2412
  -5.900  -0.6564   0.00691   0.00238  -0.0012  0.9229  0.0485  -2.4486   0.0000   0.2414
  -5.800  -0.6455   0.00685   0.00233  -0.0011  0.9176  0.0505  -2.3888   0.0000   0.2416
  -5.700  -0.6346   0.00681   0.00228  -0.0010  0.9124  0.0520  -2.3292   0.0000   0.2418
  -5.600  -0.6238   0.00674   0.00222  -0.0009  0.9067  0.0551  -2.2706   0.0000   0.2420
  -5.500  -0.6129   0.00670   0.00217  -0.0008  0.9011  0.0573  -2.2122   0.0000   0.2421
  -5.400  -0.6019   0.00665   0.00212  -0.0008  0.8950  0.0598  -2.1540   0.0000   0.2423
  -5.300  -0.5911   0.00660   0.00206  -0.0007  0.8890  0.0625  -2.0968   0.0000   0.2425
  -5.200  -0.5800   0.00656   0.00202  -0.0007  0.8826  0.0644  -2.0409   0.0000   0.2426
  -5.100  -0.5691   0.00650   0.00196  -0.0006  0.8762  0.0679  -1.9890   0.0000   0.2428
  -5.000  -0.5580   0.00646   0.00192  -0.0005  0.8692  0.0705  -1.9370   0.0000   0.2429
  -4.900  -0.5471   0.00641   0.00187  -0.0005  0.8626  0.0740  -1.8857   0.0000   0.2430
  -4.800  -0.5361   0.00637   0.00182  -0.0004  0.8551  0.0775  -1.8348   0.0000   0.2432
  -4.700  -0.5251   0.00631   0.00177  -0.0004  0.8482  0.0819  -1.7844   0.0000   0.2433
  -4.600  -0.5141   0.00628   0.00173  -0.0003  0.8404  0.0852  -1.7342   0.0000   0.2434
  -4.500  -0.5030   0.00622   0.00168  -0.0003  0.8329  0.0898  -1.6845   0.0000   0.2436
  -4.400  -0.4919   0.00620   0.00164  -0.0003  0.8253  0.0930  -1.6356   0.0000   0.2437
  -4.300  -0.4809   0.00614   0.00159  -0.0002  0.8171  0.0980  -1.5906   0.0000   0.2438
  -4.200  -0.4698   0.00611   0.00155  -0.0002  0.8094  0.1026  -1.5457   0.0000   0.2439
  -4.000  -0.4478   0.00601   0.00147  -0.0001  0.7927  0.1140  -1.4575   0.0000   0.2442
  -3.900  -0.4366   0.00598   0.00143  -0.0001  0.7845  0.1187  -1.4137   0.0000   0.2443
  -3.800  -0.4256   0.00594   0.00139  -0.0001  0.7756  0.1244  -1.3704   0.0000   0.2444
  -3.700  -0.4145   0.00589   0.00135  -0.0000  0.7674  0.1303  -1.3303   0.0000   0.2445
  -3.600  -0.4034   0.00586   0.00132  -0.0000  0.7585  0.1365  -1.2909   0.0000   0.2446
  -3.500  -0.3923   0.00582   0.00128   0.0000  0.7498  0.1434  -1.2518   0.0000   0.2447
  -3.400  -0.3812   0.00577   0.00124   0.0000  0.7413  0.1503  -1.2131   0.0000   0.2448
  -3.300  -0.3701   0.00575   0.00121   0.0000  0.7320  0.1562  -1.1745   0.0000   0.2449
  -3.200  -0.3589   0.00571   0.00118   0.0001  0.7236  0.1632  -1.1388   0.0000   0.2450
  -3.100  -0.3479   0.00567   0.00115   0.0001  0.7146  0.1714  -1.1038   0.0000   0.2451
  -3.000  -0.3367   0.00563   0.00112   0.0001  0.7055  0.1789  -1.0689   0.0000   0.2452
  -2.900  -0.3255   0.00560   0.00109   0.0001  0.6969  0.1856  -1.0342   0.0000   0.2453
  -2.800  -0.3144   0.00557   0.00106   0.0001  0.6875  0.1934  -1.0021   0.0000   0.2454
  -2.700  -0.3033   0.00553   0.00103   0.0001  0.6788  0.2021  -0.9704   0.0000   0.2455
  -2.600  -0.2921   0.00550   0.00100   0.0001  0.6700  0.2099  -0.9389   0.0000   0.2456
  -2.500  -0.2809   0.00548   0.00098   0.0001  0.6606  0.2176  -0.9088   0.0000   0.2456
  -2.400  -0.2697   0.00544   0.00095   0.0001  0.6521  0.2260  -0.8797   0.0000   0.2457
  -2.300  -0.2586   0.00541   0.00093   0.0002  0.6429  0.2348  -0.8511   0.0000   0.2458
  -2.200  -0.2474   0.00538   0.00091   0.0002  0.6339  0.2432  -0.8238   0.0000   0.2459
  -2.100  -0.2362   0.00536   0.00089   0.0002  0.6252  0.2512  -0.7972   0.0000   0.2459
  -1.900  -0.2138   0.00531   0.00085   0.0002  0.6072  0.2692  -0.7466   0.0000   0.2461
  -1.800  -0.2026   0.00529   0.00083   0.0002  0.5982  0.2775  -0.7222   0.0000   0.2461
  -1.700  -0.1914   0.00527   0.00082   0.0002  0.5891  0.2860  -0.6993   0.0000   0.2461
  -1.600  -0.1801   0.00524   0.00080   0.0002  0.5805  0.2953  -0.6767   0.0000   0.2462
  -1.500  -0.1690   0.00523   0.00078   0.0002  0.5711  0.3043  -0.6555   0.0000   0.2463
  -1.400  -0.1577   0.00521   0.00077   0.0001  0.5625  0.3128  -0.6346   0.0000   0.2463
  -1.300  -0.1464   0.00519   0.00076   0.0001  0.5538  0.3216  -0.6146   0.0000   0.2463
  -1.200  -0.1352   0.00518   0.00075   0.0001  0.5445  0.3312  -0.5955   0.0000   0.2464
  -1.100  -0.1239   0.00516   0.00073   0.0001  0.5361  0.3397  -0.5768   0.0000   0.2464
  -1.000  -0.1127   0.00516   0.00072   0.0001  0.5269  0.3482  -0.5592   0.0000   0.2465
  -0.900  -0.1014   0.00513   0.00072   0.0001  0.5180  0.3579  -0.5420   0.0000   0.2465
  -0.800  -0.0902   0.00512   0.00071   0.0001  0.5096  0.3668  -0.5254   0.0000   0.2465
  -0.600  -0.0676   0.00510   0.00069   0.0001  0.4918  0.3848  -0.4944   0.0000   0.2466
  -0.500  -0.0564   0.00510   0.00069   0.0001  0.4827  0.3936  -0.4795   0.0000   0.2466
  -0.400  -0.0451   0.00510   0.00069   0.0000  0.4736  0.4020  -0.4653   0.0000   0.2465
  -0.300  -0.0338   0.00509   0.00068   0.0000  0.4652  0.4117  -0.4516   0.0000   0.2466
  -0.200  -0.0226   0.00509   0.00068   0.0000  0.4559  0.4204  -0.4383   0.0000   0.2468
  -0.100  -0.0112   0.00509   0.00068   0.0000  0.4470  0.4288  -0.4254   0.0000   0.2462
   0.000   0.0000   0.00508   0.00068  -0.0000  0.4385  0.4385  -0.4129   0.0000   0.4574
   0.100   0.0112   0.00509   0.00068  -0.0000  0.4288  0.4470  -0.4254   0.0000   0.2462
   0.200   0.0226   0.00509   0.00068  -0.0000  0.4204  0.4559  -0.4383   0.0000   0.2468
   0.300   0.0338   0.00509   0.00068  -0.0000  0.4117  0.4652  -0.4516   0.0000   0.2466
   0.400   0.0451   0.00510   0.00069  -0.0000  0.4020  0.4736  -0.4653   0.0000   0.2465
   0.500   0.0564   0.00510   0.00069  -0.0001  0.3936  0.4827  -0.4795   0.0000   0.2466
   0.600   0.0676   0.00510   0.00069  -0.0001  0.3848  0.4918  -0.4944   0.0000   0.2466
   0.800   0.0902   0.00512   0.00071  -0.0001  0.3668  0.5096  -0.5254   0.0000   0.2465
   0.900   0.1014   0.00513   0.00072  -0.0001  0.3579  0.5180  -0.5420   0.0000   0.2465
   1.000   0.1127   0.00516   0.00072  -0.0001  0.3482  0.5269  -0.5592   0.0000   0.2465
   1.100   0.1239   0.00516   0.00073  -0.0001  0.3397  0.5361  -0.5768   0.0000   0.2464
   1.200   0.1352   0.00518   0.00075  -0.0001  0.3312  0.5445  -0.5955   0.0000   0.2464
   1.300   0.1464   0.00519   0.00076  -0.0001  0.3216  0.5538  -0.6146   0.0000   0.2463
   1.400   0.1577   0.00521   0.00077  -0.0001  0.3128  0.5625  -0.6346   0.0000   0.2463
   1.500   0.1690   0.00523   0.00078  -0.0002  0.3043  0.5711  -0.6555   0.0000   0.2463
   1.600   0.1801   0.00524   0.00080  -0.0002  0.2953  0.5805  -0.6767   0.0000   0.2462
   1.700   0.1914   0.00527   0.00082  -0.0002  0.2860  0.5891  -0.6993   0.0000   0.2462
   1.800   0.2026   0.00529   0.00083  -0.0002  0.2775  0.5982  -0.7222   0.0000   0.2461
   1.900   0.2138   0.00531   0.00085  -0.0002  0.2692  0.6072  -0.7466   0.0000   0.2461
   2.100   0.2362   0.00536   0.00089  -0.0002  0.2512  0.6252  -0.7972   0.0000   0.2459
   2.200   0.2474   0.00538   0.00091  -0.0002  0.2432  0.6339  -0.8238   0.0000   0.2459
   2.300   0.2586   0.00541   0.00093  -0.0002  0.2348  0.6429  -0.8511   0.0000   0.2458
   2.400   0.2698   0.00544   0.00095  -0.0001  0.2260  0.6521  -0.8798   0.0000   0.2457
   2.500   0.2810   0.00548   0.00098  -0.0001  0.2176  0.6605  -0.9088   0.0000   0.2456
   2.600   0.2921   0.00550   0.00100  -0.0001  0.2099  0.6700  -0.9389   0.0000   0.2456
   2.700   0.3033   0.00553   0.00103  -0.0001  0.2021  0.6788  -0.9704   0.0000   0.2455
   2.800   0.3144   0.00557   0.00106  -0.0001  0.1934  0.6875  -1.0021   0.0000   0.2454
   2.900   0.3255   0.00560   0.00109  -0.0001  0.1856  0.6969  -1.0342   0.0000   0.2453
   3.000   0.3368   0.00563   0.00112  -0.0001  0.1789  0.7055  -1.0690   0.0000   0.2452
   3.100   0.3479   0.00567   0.00115  -0.0001  0.1714  0.7146  -1.1038   0.0000   0.2451
   3.200   0.3589   0.00571   0.00118  -0.0001  0.1631  0.7236  -1.1388   0.0000   0.2450
   3.300   0.3701   0.00575   0.00121  -0.0000  0.1562  0.7320  -1.1745   0.0000   0.2449
   3.400   0.3812   0.00577   0.00124  -0.0000  0.1503  0.7413  -1.2131   0.0000   0.2448
   3.500   0.3923   0.00582   0.00128  -0.0000  0.1434  0.7499  -1.2518   0.0000   0.2447
   3.600   0.4034   0.00586   0.00132   0.0000  0.1365  0.7585  -1.2909   0.0000   0.2446
   3.700   0.4145   0.00589   0.00135   0.0000  0.1303  0.7674  -1.3303   0.0000   0.2445
   3.800   0.4256   0.00594   0.00139   0.0001  0.1244  0.7756  -1.3705   0.0000   0.2444
   3.900   0.4367   0.00598   0.00143   0.0001  0.1187  0.7845  -1.4137   0.0000   0.2443
   4.000   0.4478   0.00601   0.00147   0.0001  0.1140  0.7927  -1.4575   0.0000   0.2442
   4.200   0.4698   0.00611   0.00155   0.0002  0.1026  0.8094  -1.5458   0.0000   0.2439
   4.300   0.4809   0.00614   0.00159   0.0002  0.0980  0.8171  -1.5907   0.0000   0.2438
   4.400   0.4919   0.00620   0.00164   0.0003  0.0930  0.8252  -1.6356   0.0000   0.2437
   4.500   0.5030   0.00622   0.00168   0.0003  0.0898  0.8329  -1.6846   0.0000   0.2436
   4.600   0.5141   0.00628   0.00173   0.0003  0.0852  0.8404  -1.7342   0.0000   0.2435
   4.700   0.5251   0.00631   0.00177   0.0004  0.0819  0.8482  -1.7844   0.0000   0.2433
   4.800   0.5361   0.00637   0.00182   0.0004  0.0775  0.8551  -1.8348   0.0000   0.2432
   4.900   0.5471   0.00641   0.00187   0.0005  0.0740  0.8626  -1.8858   0.0000   0.2430
   5.000   0.5581   0.00646   0.00192   0.0005  0.0705  0.8692  -1.9371   0.0000   0.2429
   5.100   0.5691   0.00650   0.00196   0.0006  0.0679  0.8762  -1.9891   0.0000   0.2428
   5.200   0.5800   0.00656   0.00202   0.0007  0.0644  0.8825  -2.0410   0.0000   0.2426
   5.300   0.5911   0.00660   0.00206   0.0007  0.0625  0.8890  -2.0969   0.0000   0.2425
   5.400   0.6019   0.00665   0.00212   0.0008  0.0598  0.8950  -2.1541   0.0000   0.2423
   5.500   0.6129   0.00670   0.00217   0.0008  0.0573  0.9011  -2.2123   0.0000   0.2422
   5.600   0.6238   0.00674   0.00222   0.0009  0.0551  0.9067  -2.2707   0.0000   0.2420
   5.700   0.6347   0.00681   0.00228   0.0010  0.0520  0.9124  -2.3293   0.0000   0.2418
   5.800   0.6456   0.00685   0.00233   0.0011  0.0505  0.9175  -2.3888   0.0000   0.2416
   5.900   0.6564   0.00691   0.00238   0.0011  0.0485  0.9229  -2.4487   0.0000   0.2415
   6.000   0.6672   0.00697   0.00244   0.0012  0.0462  0.9276  -2.5086   0.0000   0.2412
   6.100   0.6781   0.00701   0.00249   0.0013  0.0452  0.9326  -2.5697   0.0000   0.2411
   6.200   0.6889   0.00707   0.00255   0.0014  0.0437  0.9369  -2.6310   0.0000   0.2409
   6.300   0.6995   0.00714   0.00261   0.0016  0.0418  0.9415  -2.6920   0.0000   0.2407
   6.500   0.7210   0.00724   0.00272   0.0018  0.0395  0.9496  -2.8236   0.0000   0.2402
   6.600   0.7317   0.00730   0.00278   0.0019  0.0381  0.9535  -2.8917   0.0000   0.2400
   6.700   0.7422   0.00738   0.00285   0.0020  0.0363  0.9570  -2.9596   0.0000   0.2398
   6.800   0.7527   0.00743   0.00291   0.0022  0.0353  0.9608  -3.0285   0.0000   0.2395
   7.000   0.7738   0.00756   0.00303   0.0025  0.0333  0.9672  -3.1679   0.0000   0.2390
   7.100   0.7842   0.00763   0.00310   0.0027  0.0320  0.9705  -3.2378   0.0000   0.2387
   7.200   0.7947   0.00770   0.00317   0.0028  0.0308  0.9733  -3.3086   0.0000   0.2385
   7.300   0.8052   0.00776   0.00322   0.0030  0.0304  0.9760  -3.3803   0.0000   0.2382
   7.400   0.8157   0.00782   0.00328   0.0031  0.0297  0.9788  -3.4527   0.0000   0.2380
   7.500   0.8264   0.00789   0.00335   0.0033  0.0289  0.9811  -3.5259   0.0000   0.2378
   7.600   0.8372   0.00797   0.00342   0.0033  0.0280  0.9832  -3.6001   0.0000   0.2377
   7.700   0.8479   0.00806   0.00350   0.0034  0.0269  0.9855  -3.6742   0.0000   0.2375
   7.800   0.8589   0.00812   0.00356   0.0034  0.0263  0.9874  -3.7501   0.0000   0.2375
   7.900   0.8708   0.00819   0.00363   0.0033  0.0259  0.9887  -3.8298   0.0000   0.2376
   8.000   0.8825   0.00826   0.00369   0.0031  0.0254  0.9900  -3.9095   0.0000   0.2377
   8.100   0.8938   0.00834   0.00377   0.0031  0.0248  0.9915  -3.9943   0.0000   0.2377
   8.200   0.9050   0.00843   0.00385   0.0030  0.0240  0.9930  -4.0796   0.0000   0.2377
   8.300   0.9174   0.00853   0.00394   0.0027  0.0230  0.9936  -4.1695   0.0000   0.2379
   8.400   0.9296   0.00862   0.00402   0.0025  0.0222  0.9942  -4.2601   0.0000   0.2382
   8.500   0.9420   0.00869   0.00409   0.0022  0.0220  0.9948  -4.3525   0.0000   0.2384
   8.600   0.9544   0.00877   0.00416   0.0019  0.0216  0.9954  -4.4455   0.0000   0.2387
   8.700   0.9668   0.00886   0.00424   0.0015  0.0212  0.9958  -4.5395   0.0000   0.2389
   8.800   0.9792   0.00895   0.00433   0.0012  0.0207  0.9963  -4.6339   0.0000   0.2391
   8.900   0.9915   0.00905   0.00442   0.0009  0.0202  0.9967  -4.7284   0.0000   0.2393
   9.000   1.0036   0.00916   0.00452   0.0007  0.0195  0.9972  -4.8228   0.0000   0.2395
   9.100   1.0158   0.00926   0.00462   0.0004  0.0187  0.9975  -4.9178   0.0000   0.2396
   9.200   1.0283   0.00935   0.00471   0.0000  0.0184  0.9977  -5.0157   0.0000   0.2399
   9.300   1.0409   0.00944   0.00479  -0.0003  0.0183  0.9979  -5.1151   0.0000   0.2401
   9.400   1.0535   0.00952   0.00487  -0.0007  0.0181  0.9982  -5.2149   0.0000   0.2403
   9.500   1.0659   0.00961   0.00496  -0.0010  0.0179  0.9984  -5.3151   0.0000   0.2405
   9.600   1.0784   0.00970   0.00505  -0.0013  0.0176  0.9987  -5.4158   0.0000   0.2407
   9.700   1.0907   0.00980   0.00514  -0.0017  0.0172  0.9989  -5.5168   0.0000   0.2408
   9.800   1.1029   0.00991   0.00525  -0.0020  0.0169  0.9992  -5.6182   0.0000   0.2410
   9.900   1.1151   0.01002   0.00535  -0.0023  0.0165  0.9994  -5.7198   0.0000   0.2411
  10.000   1.1273   0.01014   0.00547  -0.0026  0.0160  0.9996  -5.8215   0.0000   0.2412
  10.100   1.1394   0.01027   0.00559  -0.0029  0.0154  0.9999  -5.9232   0.0000   0.2413
  10.200   1.1504   0.01039   0.00570  -0.0029  0.0150  1.0000  -6.0206   0.0000   0.2412
  10.300   1.1591   0.01046   0.00578  -0.0024  0.0150  1.0000  -6.1103   0.0000   0.2406
  10.400   1.1679   0.01054   0.00587  -0.0020  0.0149  1.0000  -6.2010   0.0000   0.2401
  10.500   1.1768   0.01063   0.00595  -0.0015  0.0148  1.0000  -6.2940   0.0000   0.2395
  10.600   1.1858   0.01071   0.00604  -0.0011  0.0147  1.0000  -6.3929   0.0000   0.2390
  10.700   1.1948   0.01080   0.00613  -0.0007  0.0145  1.0000  -6.4926   0.0000   0.2386
  10.800   1.2039   0.01089   0.00622  -0.0003  0.0144  1.0000  -6.5932   0.0000   0.2381
  10.900   1.2130   0.01099   0.00632   0.0000  0.0142  1.0000  -6.6945   0.0000   0.2376
  11.000   1.2221   0.01109   0.00642   0.0004  0.0140  1.0000  -6.7963   0.0000   0.2372
  11.100   1.2312   0.01120   0.00653   0.0008  0.0138  1.0000  -6.8986   0.0000   0.2368
  11.200   1.2403   0.01132   0.00664   0.0011  0.0135  1.0000  -7.0017   0.0000   0.2364
  11.300   1.2495   0.01143   0.00676   0.0015  0.0133  1.0000  -7.1056   0.0000   0.2359
  11.400   1.2588   0.01156   0.00688   0.0018  0.0130  1.0000  -7.2100   0.0000   0.2356
  11.500   1.2680   0.01169   0.00701   0.0021  0.0126  1.0000  -7.3148   0.0000   0.2352
  11.600   1.2773   0.01183   0.00715   0.0024  0.0123  1.0000  -7.4199   0.0000   0.2348
  11.700   1.2866   0.01197   0.00729   0.0027  0.0120  1.0000  -7.5252   0.0000   0.2345
  11.800   1.2962   0.01209   0.00742   0.0029  0.0119  1.0000  -7.6338   0.0000   0.2341
  11.900   1.3059   0.01219   0.00753   0.0031  0.0119  1.0000  -7.7450   0.0000   0.2338
  12.000   1.3157   0.01230   0.00763   0.0033  0.0118  1.0000  -7.8568   0.0000   0.2336
  12.100   1.3254   0.01240   0.00775   0.0035  0.0118  1.0000  -7.9692   0.0000   0.2333
  12.200   1.3351   0.01252   0.00786   0.0037  0.0117  1.0000  -8.0821   0.0000   0.2330
  12.300   1.3448   0.01263   0.00798   0.0039  0.0117  1.0000  -8.1955   0.0000   0.2327
  12.400   1.3545   0.01274   0.00810   0.0041  0.0116  1.0000  -8.3094   0.0000   0.2324
  12.500   1.3641   0.01286   0.00822   0.0043  0.0115  1.0000  -8.4237   0.0000   0.2321
  12.600   1.3737   0.01299   0.00835   0.0045  0.0114  1.0000  -8.5383   0.0000   0.2318
  12.700   1.3832   0.01311   0.00848   0.0047  0.0113  1.0000  -8.6532   0.0000   0.2315
  12.800   1.3927   0.01324   0.00861   0.0050  0.0112  1.0000  -8.7685   0.0000   0.2312
  12.900   1.4022   0.01337   0.00874   0.0052  0.0111  1.0000  -8.8841   0.0000   0.2309
  13.000   1.4115   0.01351   0.00889   0.0054  0.0110  1.0000  -8.9998   0.0000   0.2306
  13.100   1.4208   0.01366   0.00903   0.0057  0.0108  1.0000  -9.1156   0.0000   0.2303
  13.200   1.4300   0.01381   0.00918   0.0059  0.0107  1.0000  -9.2315   0.0000   0.2300
  13.300   1.4391   0.01396   0.00934   0.0062  0.0106  1.0000  -9.3475   0.0000   0.2297
  13.400   1.4482   0.01412   0.00950   0.0064  0.0104  1.0000  -9.4633   0.0000   0.2294
  13.500   1.4571   0.01429   0.00967   0.0067  0.0102  1.0000  -9.5788   0.0000   0.2290
  13.600   1.4659   0.01446   0.00985   0.0070  0.0100  1.0000  -9.6938   0.0000   0.2287
  13.700   1.4747   0.01464   0.01003   0.0073  0.0098  1.0000  -9.8083   0.0000   0.2283
  13.800   1.4833   0.01483   0.01023   0.0077  0.0096  1.0000  -9.9220   0.0000   0.2280
  13.900   1.4917   0.01502   0.01043   0.0080  0.0094  1.0000  -10.0350   0.0000   0.2276
  14.000   1.5001   0.01523   0.01065   0.0084  0.0092  1.0000  -10.1471   0.0000   0.2272
  14.100   1.5087   0.01540   0.01084   0.0087  0.0091  1.0000  -10.2633   0.0000   0.2268
  14.200   1.5175   0.01555   0.01099   0.0090  0.0091  1.0000  -10.3837   0.0000   0.2265
  14.300   1.5263   0.01570   0.01115   0.0092  0.0091  1.0000  -10.5043   0.0000   0.2262
  14.400   1.5351   0.01586   0.01131   0.0095  0.0091  1.0000  -10.6249   0.0000   0.2258
  14.500   1.5437   0.01601   0.01147   0.0098  0.0091  1.0000  -10.7457   0.0000   0.2255
  14.600   1.5523   0.01617   0.01164   0.0102  0.0091  1.0000  -10.8664   0.0000   0.2252
  14.700   1.5608   0.01633   0.01181   0.0105  0.0090  1.0000  -10.9873   0.0000   0.2248
  14.800   1.5692   0.01649   0.01198   0.0108  0.0090  1.0000  -11.1082   0.0000   0.2244
  14.900   1.5776   0.01666   0.01215   0.0111  0.0090  1.0000  -11.2292   0.0000   0.2241
  15.000   1.5858   0.01683   0.01233   0.0115  0.0089  1.0000  -11.3500   0.0000   0.2237
  15.100   1.5939   0.01700   0.01251   0.0119  0.0089  1.0000  -11.4707   0.0000   0.2233
  15.200   1.6019   0.01718   0.01270   0.0122  0.0088  1.0000  -11.5912   0.0000   0.2229
  15.300   1.6098   0.01736   0.01288   0.0126  0.0088  1.0000  -11.7113   0.0000   0.2226
  15.400   1.6175   0.01754   0.01308   0.0130  0.0087  1.0000  -11.8310   0.0000   0.2221
  15.500   1.6251   0.01773   0.01328   0.0135  0.0087  1.0000  -11.9561   0.0000   0.2217
  15.600   1.6325   0.01793   0.01348   0.0139  0.0086  1.0000  -12.0810   0.0000   0.2213
  15.700   1.6396   0.01813   0.01369   0.0144  0.0086  1.0000  -12.2046   0.0000   0.2208
  15.800   1.6462   0.01833   0.01391   0.0150  0.0085  1.0000  -12.3251   0.0000   0.2203
  15.900   1.6521   0.01854   0.01412   0.0157  0.0084  1.0000  -12.4408   0.0000   0.2197
  16.000   1.6576   0.01875   0.01435   0.0165  0.0084  1.0000  -12.5542   0.0000   0.2191
  16.100   1.6629   0.01898   0.01459   0.0173  0.0083  1.0000  -12.6666   0.0000   0.2185
  16.200   1.6680   0.01922   0.01484   0.0181  0.0083  1.0000  -12.7784   0.0000   0.2178
  16.300   1.6731   0.01946   0.01510   0.0188  0.0082  1.0000  -12.8898   0.0000   0.2172
  16.400   1.6781   0.01972   0.01537   0.0196  0.0081  1.0000  -13.0006   0.0000   0.2166
  16.500   1.6829   0.02000   0.01565   0.0203  0.0081  1.0000  -13.1106   0.0000   0.2160
  16.600   1.6876   0.02028   0.01595   0.0211  0.0080  1.0000  -13.2200   0.0000   0.2154
  16.700   1.6922   0.02058   0.01626   0.0218  0.0079  1.0000  -13.3282   0.0000   0.2148
  16.800   1.6966   0.02090   0.01659   0.0225  0.0079  1.0000  -13.4353   0.0000   0.2142
  16.900   1.7008   0.02123   0.01694   0.0232  0.0078  1.0000  -13.5411   0.0000   0.2136
  17.000   1.7048   0.02158   0.01730   0.0239  0.0077  1.0000  -13.6457   0.0000   0.2130
  17.100   1.7087   0.02195   0.01769   0.0246  0.0076  1.0000  -13.7491   0.0000   0.2125
  17.200   1.7123   0.02234   0.01810   0.0253  0.0075  1.0000  -13.8504   0.0000   0.2119
  17.300   1.7158   0.02276   0.01853   0.0260  0.0074  1.0000  -13.9502   0.0000   0.2113
  17.400   1.7190   0.02319   0.01899   0.0266  0.0073  1.0000  -14.0486   0.0000   0.2108
  17.500   1.7220   0.02366   0.01947   0.0272  0.0073  1.0000  -14.1445   0.0000   0.2102
  17.600   1.7248   0.02416   0.01999   0.0278  0.0072  1.0000  -14.2381   0.0000   0.2097
  17.700   1.7273   0.02468   0.02054   0.0284  0.0071  1.0000  -14.3299   0.0000   0.2091
  17.800   1.7296   0.02524   0.02113   0.0290  0.0070  1.0000  -14.4198   0.0000   0.2086
  17.900   1.7316   0.02584   0.02175   0.0295  0.0069  1.0000  -14.5066   0.0000   0.2081
  18.000   1.7333   0.02647   0.02241   0.0300  0.0068  1.0000  -14.5904   0.0000   0.2076
  18.100   1.7346   0.02716   0.02313   0.0304  0.0068  1.0000  -14.6712   0.0000   0.2072
  18.200   1.7368   0.02780   0.02379   0.0308  0.0067  1.0000  -14.7605   0.0000   0.2068
  18.300   1.7396   0.02839   0.02441   0.0311  0.0067  1.0000  -14.8570   0.0000   0.2064
  18.400   1.7422   0.02902   0.02505   0.0313  0.0067  1.0000  -14.9515   0.0000   0.2060
  18.500   1.7446   0.02967   0.02573   0.0316  0.0067  1.0000  -15.0441   0.0000   0.2057
  18.600   1.7468   0.03037   0.02645   0.0317  0.0067  1.0000  -15.1350   0.0000   0.2053
  18.700   1.7489   0.03109   0.02720   0.0319  0.0067  1.0000  -15.2246   0.0000   0.2050
  18.800   1.7509   0.03185   0.02798   0.0320  0.0067  1.0000  -15.3127   0.0000   0.2048
  18.900   1.7526   0.03265   0.02880   0.0321  0.0067  1.0000  -15.3987   0.0000   0.2045
  19.000   1.7539   0.03350   0.02967   0.0321  0.0067  1.0000  -15.4815   0.0000   0.2042
  19.100   1.7550   0.03438   0.03058   0.0321  0.0067  1.0000  -15.5612   0.0000   0.2040
  19.200   1.7558   0.03531   0.03154   0.0321  0.0067  1.0000  -15.6389   0.0000   0.2038
  19.300   1.7565   0.03629   0.03254   0.0320  0.0067  1.0000  -15.7143   0.0000   0.2036
  19.400   1.7569   0.03732   0.03359   0.0319  0.0067  1.0000  -15.7870   0.0000   0.2034
  19.500   1.7569   0.03840   0.03470   0.0317  0.0067  1.0000  -15.8566   0.0000   0.2032
  19.600   1.7567   0.03953   0.03587   0.0314  0.0067  1.0000  -15.9225   0.0000   0.2031
  19.700   1.7559   0.04074   0.03710   0.0312  0.0067  1.0000  -15.9835   0.0000   0.2030
  19.800   1.7547   0.04201   0.03840   0.0308  0.0066  1.0000  -16.0398   0.0000   0.2029
  19.900   1.7532   0.04334   0.03977   0.0305  0.0066  1.0000  -16.0922   0.0000   0.2028
  20.000   1.7513   0.04475   0.04121   0.0300  0.0066  1.0000  -16.1403   0.0000   0.2028
  20.100   1.7489   0.04623   0.04272   0.0295  0.0066  1.0000  -16.1836   0.0000   0.2028
  20.200   1.7461   0.04780   0.04432   0.0290  0.0066  1.0000  -16.2217   0.0000   0.2028
  20.300   1.7428   0.04945   0.04601   0.0283  0.0066  1.0000  -16.2539   0.0000   0.2028
  20.400   1.7387   0.05119   0.04779   0.0277  0.0066  1.0000  -16.2786   0.0000   0.2029
  20.500   1.7341   0.05303   0.04966   0.0269  0.0066  1.0000  -16.2965   0.0000   0.2030
  20.600   1.7290   0.05498   0.05165   0.0261  0.0066  1.0000  -16.3079   0.0000   0.2031
  20.700   1.7232   0.05704   0.05375   0.0252  0.0066  1.0000  -16.3122   0.0000   0.2033
  20.800   1.7168   0.05921   0.05596   0.0243  0.0066  1.0000  -16.3089   0.0000   0.2035
  20.900   1.7098   0.06150   0.05830   0.0232  0.0066  1.0000  -16.2971   0.0000   0.2038
  21.000   1.7018   0.06393   0.06077   0.0221  0.0066  1.0000  -16.2752   0.0000   0.2041
  21.100   1.6928   0.06651   0.06340   0.0209  0.0066  1.0000  -16.2404   0.0000   0.2044
  21.200   1.6827   0.06930   0.06624   0.0196  0.0066  1.0000  -16.1927   0.0000   0.2048
  21.300   1.6716   0.07228   0.06927   0.0181  0.0066  1.0000  -16.1321   0.0000   0.2053
  21.400   1.6597   0.07541   0.07245   0.0166  0.0066  1.0000  -16.0606   0.0000   0.2059
  21.500   1.6470   0.07868   0.07577   0.0150  0.0066  1.0000  -15.9788   0.0000   0.2065
  21.600   1.6327   0.08219   0.07934   0.0132  0.0066  1.0000  -15.8765   0.0000   0.2072
  21.700   1.6161   0.08610   0.08331   0.0113  0.0066  1.0000  -15.7464   0.0000   0.2080
  21.800   1.5993   0.09011   0.08738   0.0092  0.0066  1.0000  -15.6105   0.0000   0.2089
  21.900   1.5814   0.09434   0.09167   0.0070  0.0066  1.0000  -15.4588   0.0000   0.2099
  22.000   1.5600   0.09915   0.09656   0.0045  0.0066  1.0000  -15.2625   0.0000   0.2112
  22.100   1.5392   0.10387   0.10135   0.0020  0.0066  1.0000  -15.0702   0.0000   0.2125
  22.200   1.5140   0.10946   0.10702  -0.0010  0.0066  1.0000  -14.8178   0.0000   0.2142
  22.300   1.4909   0.11477   0.11239  -0.0039  0.0066  1.0000  -14.5850   0.0000   0.2159
  22.400   1.4623   0.12112   0.11883  -0.0075  0.0066  1.0000  -14.2754   0.0000   0.2181
  22.500   1.4347   0.12733   0.12513  -0.0110  0.0066  1.0000  -13.9711   0.0000   0.2204
  22.600   1.4059   0.13396   0.13184  -0.0149  0.0066  1.0000  -13.6387   0.0000   0.2231
  22.700   1.3744   0.14130   0.13927  -0.0193  0.0066  1.0000  -13.2560   0.0000   0.2263
  22.800   1.3485   0.14768   0.14572  -0.0232  0.0066  1.0000  -12.9368   0.0000   0.2293
  22.900   1.3165   0.15542   0.15356  -0.0281  0.0067  1.0000  -12.5159   0.0000   0.2332
  23.000   1.2929   0.16173   0.15994  -0.0321  0.0067  1.0000  -12.1987   0.0000   0.2366
  23.100   1.2644   0.16935   0.16764  -0.0371  0.0067  1.0000  -11.7873   0.0000   0.2410
  23.200   1.2444   0.17530   0.17366  -0.0411  0.0067  1.0000  -11.4923   0.0000   0.2445
  23.300   1.2268   0.18090   0.17932  -0.0449  0.0067  1.0000  -11.2211   0.0000   0.2480
  23.400   1.2107   0.18619   0.18466  -0.0485  0.0067  1.0000  -10.9646   0.0000   0.2513
  23.500   1.1969   0.19111   0.18963  -0.0519  0.0067  1.0000  -10.7348   0.0000   0.2545
  23.600   1.1900   0.19448   0.19302  -0.0542  0.0067  1.0000  -10.6207   0.0000   0.2565
  23.700   1.1784   0.19905   0.19764  -0.0574  0.0067  1.0000  -10.4139   0.0000   0.2595
  23.800   1.1736   0.20203   0.20064  -0.0595  0.0066  1.0000  -10.3262   0.0000   0.2613
  23.900   1.1644   0.20618   0.20483  -0.0624  0.0066  1.0000  -10.1474   0.0000   0.2641
  24.000   1.1610   0.20884   0.20751  -0.0643  0.0066  1.0000  -10.0800   0.0000   0.2657
  24.100   1.1531   0.21278   0.21148  -0.0671  0.0066  1.0000  -9.9132   0.0000   0.2684
  24.200   1.1507   0.21526   0.21398  -0.0689  0.0066  1.0000  -9.8582   0.0000   0.2699
  24.300   1.1456   0.21850   0.21725  -0.0712  0.0066  1.0000  -9.7401   0.0000   0.2720
  24.400   1.1420   0.22139   0.22016  -0.0733  0.0066  1.0000  -9.6504   0.0000   0.2739
  24.500   1.1408   0.22359   0.22237  -0.0749  0.0065  1.0000  -9.6130   0.0000   0.2752
  24.600   1.1394   0.22586   0.22465  -0.0766  0.0065  1.0000  -9.5677   0.0000   0.2765
  24.700   1.1338   0.22941   0.22824  -0.0791  0.0065  1.0000  -9.4198   0.0000   0.2790
  24.800   1.1332   0.23151   0.23035  -0.0807  0.0065  1.0000  -9.3868   0.0000   0.2802
  24.900   1.1326   0.23359   0.23244  -0.0822  0.0064  1.0000  -9.3539   0.0000   0.2814
  25.000   1.1289   0.23667   0.23555  -0.0845  0.0064  1.0000  -9.2381   0.0000   0.2835


