xflr5 v6.47

 Calculated polar for: NACA 0012

 1 1 Reynolds number fixed          Mach number fixed         

 xtrf =   1.000 (top)        1.000 (bottom)
 Mach =   0.000     Re =     6.000 e 6     Ncrit =   9.000

  alpha     CL        CD       CDp       Cm    Top Xtr Bot Xtr   Cpmin    Chinge    XCp    
 ------- -------- --------- --------- -------- ------- ------- -------- --------- ---------
 -25.000  -1.1493   0.22936   0.22822   0.0797  1.0000  0.0062  -9.7815   0.0000   0.2775
 -24.900  -1.1568   0.22535   0.22419   0.0768  1.0000  0.0063  -9.9701   0.0000   0.2746
 -24.800  -1.1585   0.22305   0.22187   0.0750  1.0000  0.0063  -10.0190   0.0000   0.2732
 -24.700  -1.1670   0.21885   0.21764   0.0720  1.0000  0.0063  -10.2167   0.0000   0.2702
 -24.600  -1.1701   0.21624   0.21501   0.0701  1.0000  0.0063  -10.2871   0.0000   0.2686
 -24.500  -1.1743   0.21332   0.21206   0.0679  1.0000  0.0064  -10.3800   0.0000   0.2667
 -24.400  -1.1841   0.20897   0.20768   0.0648  1.0000  0.0064  -10.5835   0.0000   0.2637
 -24.300  -1.1958   0.20424   0.20291   0.0614  1.0000  0.0064  -10.8125   0.0000   0.2604
 -24.200  -1.2015   0.20109   0.19973   0.0591  1.0000  0.0064  -10.9171   0.0000   0.2584
 -24.100  -1.2154   0.19596   0.19455   0.0554  1.0000  0.0064  -11.1715   0.0000   0.2550
 -24.000  -1.2310   0.19063   0.18917   0.0517  1.0000  0.0064  -11.4406   0.0000   0.2514
 -23.900  -1.2480   0.18514   0.18362   0.0478  1.0000  0.0065  -11.7211   0.0000   0.2479
 -23.800  -1.2666   0.17942   0.17784   0.0438  1.0000  0.0065  -12.0153   0.0000   0.2443
 -23.700  -1.2863   0.17353   0.17189   0.0397  1.0000  0.0065  -12.3143   0.0000   0.2408
 -23.600  -1.3077   0.16743   0.16573   0.0356  1.0000  0.0064  -12.6267   0.0000   0.2372
 -23.500  -1.3370   0.15988   0.15808   0.0305  1.0000  0.0064  -13.0445   0.0000   0.2330
 -23.400  -1.3598   0.15388   0.15202   0.0266  1.0000  0.0064  -13.3459   0.0000   0.2299
 -23.300  -1.3858   0.14745   0.14551   0.0225  1.0000  0.0064  -13.6797   0.0000   0.2268
 -23.200  -1.4143   0.14070   0.13867   0.0183  1.0000  0.0064  -14.0338   0.0000   0.2237
 -23.100  -1.4389   0.13475   0.13265   0.0146  1.0000  0.0064  -14.3247   0.0000   0.2212
 -23.000  -1.4672   0.12826   0.12608   0.0108  1.0000  0.0064  -14.6532   0.0000   0.2187
 -22.900  -1.4908   0.12278   0.12053   0.0076  1.0000  0.0063  -14.9100   0.0000   0.2167
 -22.800  -1.5183   0.11675   0.11442   0.0042  1.0000  0.0063  -15.2065   0.0000   0.2146
 -22.700  -1.5398   0.11175   0.10935   0.0014  1.0000  0.0063  -15.4227   0.0000   0.2131
 -22.600  -1.5622   0.10666   0.10419  -0.0014  1.0000  0.0063  -15.6447   0.0000   0.2116
 -22.500  -1.5842   0.10171   0.09917  -0.0040  1.0000  0.0063  -15.8561   0.0000   0.2102
 -22.400  -1.6033   0.09735   0.09474  -0.0063  1.0000  0.0063  -16.0270   0.0000   0.2091
 -22.300  -1.6222   0.09301   0.09034  -0.0085  1.0000  0.0063  -16.1923   0.0000   0.2081
 -22.200  -1.6402   0.08882   0.08609  -0.0107  1.0000  0.0063  -16.3445   0.0000   0.2071
 -22.100  -1.6556   0.08510   0.08232  -0.0126  1.0000  0.0063  -16.4634   0.0000   0.2063
 -22.000  -1.6703   0.08154   0.07870  -0.0143  1.0000  0.0063  -16.5708   0.0000   0.2056
 -21.900  -1.6845   0.07811   0.07521  -0.0160  1.0000  0.0063  -16.6706   0.0000   0.2050
 -21.800  -1.6976   0.07483   0.07188  -0.0176  1.0000  0.0063  -16.7559   0.0000   0.2045
 -21.700  -1.7093   0.07178   0.06878  -0.0191  1.0000  0.0063  -16.8236   0.0000   0.2040
 -21.600  -1.7197   0.06895   0.06590  -0.0205  1.0000  0.0063  -16.8761   0.0000   0.2036
 -21.500  -1.7293   0.06627   0.06317  -0.0217  1.0000  0.0063  -16.9179   0.0000   0.2032
 -21.400  -1.7383   0.06372   0.06059  -0.0229  1.0000  0.0063  -16.9510   0.0000   0.2029
 -21.300  -1.7465   0.06131   0.05813  -0.0240  1.0000  0.0063  -16.9745   0.0000   0.2026
 -21.200  -1.7537   0.05902   0.05580  -0.0250  1.0000  0.0063  -16.9870   0.0000   0.2024
 -21.100  -1.7602   0.05685   0.05359  -0.0259  1.0000  0.0063  -16.9911   0.0000   0.2022
 -21.000  -1.7662   0.05480   0.05150  -0.0268  1.0000  0.0063  -16.9873   0.0000   0.2021
 -20.900  -1.7715   0.05285   0.04952  -0.0276  1.0000  0.0063  -16.9763   0.0000   0.2020
 -20.800  -1.7762   0.05101   0.04764  -0.0283  1.0000  0.0064  -16.9589   0.0000   0.2019
 -20.700  -1.7805   0.04927   0.04586  -0.0289  1.0000  0.0064  -16.9350   0.0000   0.2019
 -20.600  -1.7840   0.04762   0.04418  -0.0295  1.0000  0.0064  -16.9035   0.0000   0.2019
 -20.500  -1.7871   0.04606   0.04258  -0.0301  1.0000  0.0064  -16.8661   0.0000   0.2019
 -20.400  -1.7896   0.04457   0.04106  -0.0305  1.0000  0.0064  -16.8234   0.0000   0.2019
 -20.300  -1.7918   0.04316   0.03962  -0.0310  1.0000  0.0064  -16.7758   0.0000   0.2020
 -20.200  -1.7935   0.04181   0.03825  -0.0313  1.0000  0.0064  -16.7239   0.0000   0.2021
 -20.100  -1.7949   0.04054   0.03694  -0.0316  1.0000  0.0065  -16.6682   0.0000   0.2022
 -20.000  -1.7959   0.03933   0.03570  -0.0319  1.0000  0.0065  -16.6081   0.0000   0.2023
 -19.900  -1.7964   0.03818   0.03453  -0.0321  1.0000  0.0065  -16.5427   0.0000   0.2025
 -19.800  -1.7965   0.03710   0.03342  -0.0322  1.0000  0.0065  -16.4731   0.0000   0.2026
 -19.700  -1.7963   0.03607   0.03236  -0.0324  1.0000  0.0065  -16.4002   0.0000   0.2028
 -19.600  -1.7958   0.03509   0.03136  -0.0324  1.0000  0.0065  -16.3245   0.0000   0.2030
 -19.500  -1.7952   0.03415   0.03039  -0.0325  1.0000  0.0065  -16.2466   0.0000   0.2033
 -19.400  -1.7943   0.03325   0.02947  -0.0325  1.0000  0.0066  -16.1666   0.0000   0.2035
 -19.300  -1.7931   0.03241   0.02860  -0.0324  1.0000  0.0066  -16.0838   0.0000   0.2038
 -19.200  -1.7916   0.03161   0.02778  -0.0323  1.0000  0.0066  -15.9973   0.0000   0.2041
 -19.100  -1.7898   0.03084   0.02699  -0.0322  1.0000  0.0066  -15.9085   0.0000   0.2044
 -19.000  -1.7878   0.03011   0.02624  -0.0320  1.0000  0.0066  -15.8182   0.0000   0.2047
 -18.900  -1.7857   0.02941   0.02552  -0.0318  1.0000  0.0066  -15.7264   0.0000   0.2050
 -18.800  -1.7834   0.02875   0.02484  -0.0316  1.0000  0.0066  -15.6324   0.0000   0.2054
 -18.700  -1.7809   0.02813   0.02419  -0.0313  1.0000  0.0066  -15.5369   0.0000   0.2058
 -18.600  -1.7783   0.02753   0.02357  -0.0310  1.0000  0.0067  -15.4399   0.0000   0.2062
 -18.500  -1.7753   0.02695   0.02298  -0.0307  1.0000  0.0067  -15.3408   0.0000   0.2065
 -18.400  -1.7723   0.02641   0.02241  -0.0303  1.0000  0.0067  -15.2401   0.0000   0.2069
 -18.300  -1.7690   0.02589   0.02188  -0.0299  1.0000  0.0067  -15.1384   0.0000   0.2074
 -18.200  -1.7658   0.02539   0.02136  -0.0295  1.0000  0.0067  -15.0362   0.0000   0.2078
 -18.100  -1.7623   0.02492   0.02087  -0.0290  1.0000  0.0067  -14.9325   0.0000   0.2082
 -18.000  -1.7586   0.02447   0.02040  -0.0286  1.0000  0.0067  -14.8270   0.0000   0.2087
 -17.900  -1.7548   0.02403   0.01995  -0.0281  1.0000  0.0067  -14.7209   0.0000   0.2091
 -17.800  -1.7509   0.02362   0.01952  -0.0276  1.0000  0.0067  -14.6138   0.0000   0.2096
 -17.700  -1.7469   0.02323   0.01911  -0.0271  1.0000  0.0067  -14.5061   0.0000   0.2101
 -17.600  -1.7428   0.02285   0.01872  -0.0265  1.0000  0.0067  -14.3975   0.0000   0.2106
 -17.500  -1.7384   0.02249   0.01834  -0.0260  1.0000  0.0067  -14.2875   0.0000   0.2111
 -17.400  -1.7340   0.02214   0.01798  -0.0254  1.0000  0.0067  -14.1772   0.0000   0.2116
 -17.300  -1.7295   0.02181   0.01764  -0.0248  1.0000  0.0067  -14.0665   0.0000   0.2121
 -17.200  -1.7254   0.02146   0.01727  -0.0241  1.0000  0.0068  -13.9599   0.0000   0.2127
 -17.100  -1.7219   0.02108   0.01686  -0.0234  1.0000  0.0069  -13.8603   0.0000   0.2133
 -17.000  -1.7183   0.02072   0.01648  -0.0226  1.0000  0.0070  -13.7590   0.0000   0.2139
 -16.900  -1.7143   0.02038   0.01612  -0.0218  1.0000  0.0070  -13.6557   0.0000   0.2145
 -16.800  -1.7102   0.02006   0.01579  -0.0210  1.0000  0.0071  -13.5511   0.0000   0.2152
 -16.700  -1.7060   0.01975   0.01546  -0.0202  1.0000  0.0072  -13.4451   0.0000   0.2158
 -16.600  -1.7016   0.01946   0.01516  -0.0194  1.0000  0.0073  -13.3381   0.0000   0.2165
 -16.500  -1.6970   0.01918   0.01487  -0.0186  1.0000  0.0074  -13.2301   0.0000   0.2171
 -16.400  -1.6923   0.01892   0.01459  -0.0178  1.0000  0.0075  -13.1212   0.0000   0.2178
 -16.300  -1.6875   0.01867   0.01433  -0.0169  1.0000  0.0076  -13.0116   0.0000   0.2184
 -16.200  -1.6826   0.01843   0.01408  -0.0161  1.0000  0.0077  -12.9012   0.0000   0.2191
 -16.100  -1.6775   0.01820   0.01385  -0.0153  1.0000  0.0078  -12.7891   0.0000   0.2198
 -16.000  -1.6718   0.01798   0.01362  -0.0145  1.0000  0.0079  -12.6736   0.0000   0.2204
 -15.900  -1.6652   0.01776   0.01339  -0.0139  1.0000  0.0080  -12.5523   0.0000   0.2209
 -15.800  -1.6583   0.01755   0.01317  -0.0134  1.0000  0.0081  -12.4287   0.0000   0.2213
 -15.700  -1.6510   0.01734   0.01295  -0.0129  1.0000  0.0082  -12.3037   0.0000   0.2218
 -15.600  -1.6436   0.01714   0.01274  -0.0125  1.0000  0.0082  -12.1777   0.0000   0.2222
 -15.500  -1.6360   0.01694   0.01254  -0.0120  1.0000  0.0083  -12.0509   0.0000   0.2226
 -15.400  -1.6283   0.01675   0.01234  -0.0116  1.0000  0.0084  -11.9242   0.0000   0.2231
 -15.300  -1.6204   0.01656   0.01215  -0.0112  1.0000  0.0085  -11.8034   0.0000   0.2235
 -15.200  -1.6124   0.01638   0.01196  -0.0108  1.0000  0.0085  -11.6821   0.0000   0.2238
 -15.100  -1.6043   0.01621   0.01178  -0.0105  1.0000  0.0086  -11.5603   0.0000   0.2242
 -15.000  -1.5960   0.01604   0.01160  -0.0101  1.0000  0.0087  -11.4382   0.0000   0.2246
 -14.900  -1.5876   0.01587   0.01143  -0.0098  1.0000  0.0087  -11.3159   0.0000   0.2250
 -14.800  -1.5791   0.01571   0.01126  -0.0095  1.0000  0.0088  -11.1933   0.0000   0.2253
 -14.700  -1.5705   0.01555   0.01110  -0.0092  1.0000  0.0089  -11.0705   0.0000   0.2257
 -14.600  -1.5618   0.01540   0.01094  -0.0089  1.0000  0.0089  -10.9477   0.0000   0.2260
 -14.500  -1.5530   0.01525   0.01078  -0.0086  1.0000  0.0089  -10.8251   0.0000   0.2263
 -14.400  -1.5441   0.01510   0.01063  -0.0083  1.0000  0.0090  -10.7025   0.0000   0.2267
 -14.300  -1.5352   0.01496   0.01048  -0.0080  1.0000  0.0090  -10.5802   0.0000   0.2270
 -14.200  -1.5262   0.01481   0.01033  -0.0078  1.0000  0.0090  -10.4581   0.0000   0.2273
 -14.100  -1.5172   0.01467   0.01018  -0.0075  1.0000  0.0091  -10.3361   0.0000   0.2276
 -14.000  -1.5080   0.01453   0.01004  -0.0073  1.0000  0.0091  -10.2143   0.0000   0.2279
 -13.900  -1.4989   0.01440   0.00989  -0.0070  1.0000  0.0091  -10.0928   0.0000   0.2283
 -13.800  -1.4896   0.01426   0.00976  -0.0068  1.0000  0.0091  -9.9715   0.0000   0.2286
 -13.700  -1.4804   0.01413   0.00962  -0.0065  1.0000  0.0091  -9.8504   0.0000   0.2289
 -13.600  -1.4710   0.01400   0.00949  -0.0063  1.0000  0.0091  -9.7297   0.0000   0.2292
 -13.500  -1.4621   0.01383   0.00931  -0.0060  1.0000  0.0093  -9.6147   0.0000   0.2295
 -13.400  -1.4531   0.01366   0.00913  -0.0057  1.0000  0.0095  -9.5004   0.0000   0.2298
 -13.300  -1.4441   0.01350   0.00896  -0.0055  1.0000  0.0097  -9.3857   0.0000   0.2302
 -13.200  -1.4350   0.01334   0.00880  -0.0052  1.0000  0.0100  -9.2707   0.0000   0.2305
 -13.100  -1.4258   0.01318   0.00864  -0.0049  1.0000  0.0102  -9.1554   0.0000   0.2308
 -13.000  -1.4165   0.01303   0.00849  -0.0047  1.0000  0.0104  -9.0399   0.0000   0.2311
 -12.900  -1.4072   0.01289   0.00834  -0.0045  1.0000  0.0105  -8.9245   0.0000   0.2315
 -12.800  -1.3978   0.01275   0.00820  -0.0042  1.0000  0.0107  -8.8091   0.0000   0.2318
 -12.700  -1.3883   0.01261   0.00806  -0.0040  1.0000  0.0109  -8.6938   0.0000   0.2321
 -12.600  -1.3788   0.01248   0.00793  -0.0038  1.0000  0.0110  -8.5787   0.0000   0.2324
 -12.500  -1.3692   0.01236   0.00781  -0.0036  1.0000  0.0111  -8.4638   0.0000   0.2327
 -12.400  -1.3596   0.01223   0.00768  -0.0034  1.0000  0.0112  -8.3494   0.0000   0.2330
 -12.300  -1.3500   0.01212   0.00757  -0.0031  1.0000  0.0114  -8.2353   0.0000   0.2333
 -12.200  -1.3403   0.01200   0.00745  -0.0029  1.0000  0.0115  -8.1216   0.0000   0.2336
 -12.100  -1.3305   0.01189   0.00734  -0.0027  1.0000  0.0116  -8.0084   0.0000   0.2338
 -12.000  -1.3208   0.01179   0.00723  -0.0025  1.0000  0.0116  -7.8957   0.0000   0.2341
 -11.900  -1.3110   0.01168   0.00712  -0.0023  1.0000  0.0117  -7.7836   0.0000   0.2344
 -11.800  -1.3013   0.01158   0.00702  -0.0021  1.0000  0.0118  -7.6722   0.0000   0.2347
 -11.700  -1.2916   0.01148   0.00692  -0.0019  1.0000  0.0118  -7.5615   0.0000   0.2351
 -11.600  -1.2819   0.01139   0.00682  -0.0017  1.0000  0.0119  -7.4516   0.0000   0.2354
 -11.500  -1.2722   0.01129   0.00672  -0.0014  1.0000  0.0119  -7.3427   0.0000   0.2357
 -11.400  -1.2627   0.01120   0.00663  -0.0011  1.0000  0.0119  -7.2347   0.0000   0.2361
 -11.300  -1.2536   0.01108   0.00650  -0.0008  1.0000  0.0122  -7.1316   0.0000   0.2365
 -11.200  -1.2445   0.01096   0.00638  -0.0004  1.0000  0.0125  -7.0292   0.0000   0.2369
 -11.100  -1.2356   0.01084   0.00627  -0.0000  1.0000  0.0129  -6.9275   0.0000   0.2374
 -11.000  -1.2266   0.01073   0.00616   0.0004  1.0000  0.0132  -6.8261   0.0000   0.2378
 -10.900  -1.2177   0.01062   0.00605   0.0008  1.0000  0.0135  -6.7254   0.0000   0.2383
 -10.800  -1.2089   0.01052   0.00595   0.0012  1.0000  0.0137  -6.6255   0.0000   0.2388
 -10.700  -1.2002   0.01042   0.00585   0.0017  1.0000  0.0139  -6.5264   0.0000   0.2394
 -10.600  -1.1915   0.01032   0.00576   0.0021  1.0000  0.0142  -6.4282   0.0000   0.2399
 -10.500  -1.1828   0.01023   0.00567   0.0026  1.0000  0.0144  -6.3307   0.0000   0.2405
 -10.400  -1.1709   0.01013   0.00557   0.0024  0.9998  0.0146  -6.2224   0.0000   0.2404
 -10.300  -1.1587   0.01004   0.00548   0.0021  0.9996  0.0147  -6.1166   0.0000   0.2403
 -10.200  -1.1465   0.00995   0.00539   0.0018  0.9994  0.0149  -6.0113   0.0000   0.2402
 -10.100  -1.1343   0.00986   0.00531   0.0015  0.9992  0.0149  -5.9066   0.0000   0.2401
 -10.000  -1.1220   0.00978   0.00522   0.0012  0.9990  0.0150  -5.8025   0.0000   0.2400
  -9.900  -1.1098   0.00967   0.00512   0.0009  0.9987  0.0154  -5.7008   0.0000   0.2399
  -9.800  -1.0976   0.00956   0.00501   0.0006  0.9985  0.0159  -5.6001   0.0000   0.2397
  -9.700  -1.0854   0.00945   0.00491   0.0003  0.9982  0.0164  -5.4995   0.0000   0.2396
  -9.600  -1.0732   0.00934   0.00481   0.0000  0.9980  0.0169  -5.3991   0.0000   0.2395
  -9.500  -1.0608   0.00924   0.00471  -0.0003  0.9978  0.0173  -5.2989   0.0000   0.2393
  -9.400  -1.0484   0.00915   0.00463  -0.0006  0.9976  0.0176  -5.1990   0.0000   0.2391
  -9.300  -1.0360   0.00906   0.00454  -0.0009  0.9974  0.0179  -5.1000   0.0000   0.2389
  -9.200  -1.0239   0.00898   0.00446  -0.0012  0.9970  0.0181  -5.0027   0.0000   0.2387
  -9.100  -1.0117   0.00890   0.00439  -0.0015  0.9965  0.0183  -4.9058   0.0000   0.2386
  -9.000  -0.9994   0.00882   0.00431  -0.0017  0.9960  0.0184  -4.8094   0.0000   0.2384
  -8.900  -0.9873   0.00874   0.00423  -0.0020  0.9953  0.0188  -4.7151   0.0000   0.2383
  -8.800  -0.9754   0.00864   0.00414  -0.0022  0.9946  0.0196  -4.6221   0.0000   0.2381
  -8.700  -0.9634   0.00854   0.00405  -0.0024  0.9939  0.0203  -4.5295   0.0000   0.2380
  -8.600  -0.9512   0.00845   0.00397  -0.0027  0.9933  0.0208  -4.4367   0.0000   0.2378
  -8.500  -0.9396   0.00837   0.00389  -0.0028  0.9921  0.0213  -4.3469   0.0000   0.2377
  -8.400  -0.9285   0.00829   0.00383  -0.0028  0.9905  0.0217  -4.2596   0.0000   0.2378
  -8.300  -0.9170   0.00823   0.00376  -0.0029  0.9890  0.0220  -4.1713   0.0000   0.2377
  -8.200  -0.9053   0.00816   0.00370  -0.0031  0.9877  0.0222  -4.0832   0.0000   0.2377
  -8.100  -0.8944   0.00808   0.00362  -0.0030  0.9859  0.0231  -3.9990   0.0000   0.2378
  -8.000  -0.8838   0.00800   0.00355  -0.0029  0.9835  0.0241  -3.9169   0.0000   0.2380
  -7.900  -0.8732   0.00792   0.00348  -0.0028  0.9813  0.0248  -3.8408   0.0000   0.2382
  -7.800  -0.8626   0.00785   0.00341  -0.0027  0.9791  0.0254  -3.7654   0.0000   0.2384
  -7.700  -0.8521   0.00779   0.00335  -0.0025  0.9763  0.0259  -3.6908   0.0000   0.2386
  -7.600  -0.8417   0.00773   0.00329  -0.0023  0.9735  0.0263  -3.6169   0.0000   0.2389
  -7.500  -0.8311   0.00767   0.00323  -0.0022  0.9708  0.0268  -3.5433   0.0000   0.2391
  -7.400  -0.8207   0.00760   0.00316  -0.0020  0.9675  0.0280  -3.4709   0.0000   0.2394
  -7.200  -0.7998   0.00746   0.00303  -0.0017  0.9610  0.0297  -3.3271   0.0000   0.2399
  -7.100  -0.7892   0.00741   0.00297  -0.0016  0.9573  0.0304  -3.2555   0.0000   0.2402
  -7.000  -0.7785   0.00736   0.00292  -0.0015  0.9539  0.0308  -3.1843   0.0000   0.2404
  -6.900  -0.7677   0.00730   0.00286  -0.0014  0.9500  0.0320  -3.1136   0.0000   0.2406
  -6.800  -0.7572   0.00723   0.00279  -0.0012  0.9459  0.0333  -3.0443   0.0000   0.2409
  -6.700  -0.7464   0.00717   0.00273  -0.0011  0.9419  0.0345  -2.9744   0.0000   0.2410
  -6.600  -0.7356   0.00712   0.00268  -0.0010  0.9373  0.0354  -2.9051   0.0000   0.2412
  -6.500  -0.7248   0.00707   0.00262  -0.0009  0.9331  0.0366  -2.8363   0.0000   0.2414
  -6.400  -0.7140   0.00700   0.00256  -0.0008  0.9281  0.0384  -2.7685   0.0000   0.2416
  -6.300  -0.7032   0.00695   0.00250  -0.0007  0.9233  0.0396  -2.7034   0.0000   0.2418
  -6.200  -0.6922   0.00691   0.00245  -0.0007  0.9182  0.0406  -2.6410   0.0000   0.2420
  -6.100  -0.6814   0.00686   0.00240  -0.0006  0.9129  0.0421  -2.5795   0.0000   0.2422
  -6.000  -0.6704   0.00680   0.00234  -0.0006  0.9074  0.0439  -2.5185   0.0000   0.2423
  -5.900  -0.6595   0.00676   0.00229  -0.0005  0.9016  0.0454  -2.4579   0.0000   0.2425
  -5.800  -0.6484   0.00672   0.00224  -0.0004  0.8958  0.0464  -2.3972   0.0000   0.2426
  -5.700  -0.6375   0.00666   0.00219  -0.0004  0.8897  0.0489  -2.3378   0.0000   0.2428
  -5.600  -0.6265   0.00661   0.00213  -0.0003  0.8833  0.0509  -2.2785   0.0000   0.2429
  -5.500  -0.6155   0.00658   0.00209  -0.0003  0.8769  0.0526  -2.2195   0.0000   0.2431
  -5.400  -0.6045   0.00652   0.00203  -0.0002  0.8701  0.0557  -2.1615   0.0000   0.2432
  -5.300  -0.5935   0.00648   0.00199  -0.0002  0.8635  0.0577  -2.1036   0.0000   0.2433
  -5.200  -0.5824   0.00644   0.00194  -0.0001  0.8561  0.0604  -2.0473   0.0000   0.2435
  -5.100  -0.5714   0.00639   0.00189  -0.0001  0.8492  0.0630  -1.9949   0.0000   0.2436
  -5.000  -0.5603   0.00636   0.00185  -0.0001  0.8414  0.0649  -1.9426   0.0000   0.2437
  -4.900  -0.5492   0.00631   0.00180  -0.0000  0.8342  0.0684  -1.8911   0.0000   0.2439
  -4.800  -0.5381   0.00628   0.00176  -0.0000  0.8264  0.0708  -1.8398   0.0000   0.2440
  -4.700  -0.5271   0.00623   0.00171   0.0000  0.8185  0.0750  -1.7892   0.0000   0.2441
  -4.600  -0.5159   0.00619   0.00167   0.0000  0.8107  0.0781  -1.7387   0.0000   0.2442
  -4.500  -0.5049   0.00615   0.00163   0.0001  0.8022  0.0827  -1.6891   0.0000   0.2443
  -4.400  -0.4937   0.00612   0.00159   0.0001  0.7944  0.0856  -1.6394   0.0000   0.2444
  -4.300  -0.4827   0.00607   0.00154   0.0001  0.7859  0.0902  -1.5943   0.0000   0.2446
  -4.200  -0.4714   0.00605   0.00151   0.0001  0.7775  0.0933  -1.5491   0.0000   0.2446
  -4.100  -0.4604   0.00600   0.00146   0.0002  0.7693  0.0987  -1.5047   0.0000   0.2448
  -4.000  -0.4493   0.00596   0.00143   0.0002  0.7603  0.1037  -1.4606   0.0000   0.2449
  -3.900  -0.4381   0.00592   0.00139   0.0002  0.7520  0.1086  -1.4167   0.0000   0.2450
  -3.800  -0.4270   0.00588   0.00135   0.0002  0.7433  0.1144  -1.3734   0.0000   0.2451
  -3.700  -0.4158   0.00586   0.00132   0.0002  0.7344  0.1186  -1.3326   0.0000   0.2451
  -3.600  -0.4047   0.00582   0.00128   0.0002  0.7261  0.1245  -1.2931   0.0000   0.2452
  -3.500  -0.3936   0.00578   0.00125   0.0002  0.7167  0.1310  -1.2541   0.0000   0.2454
  -3.400  -0.3824   0.00574   0.00122   0.0003  0.7084  0.1370  -1.2150   0.0000   0.2454
  -3.300  -0.3712   0.00571   0.00118   0.0003  0.6996  0.1433  -1.1765   0.0000   0.2455
  -3.200  -0.3601   0.00568   0.00115   0.0003  0.6904  0.1496  -1.1406   0.0000   0.2456
  -3.100  -0.3488   0.00565   0.00112   0.0003  0.6821  0.1560  -1.1053   0.0000   0.2457
  -3.000  -0.3377   0.00562   0.00109   0.0003  0.6728  0.1630  -1.0704   0.0000   0.2458
  -2.900  -0.3265   0.00557   0.00106   0.0003  0.6643  0.1708  -1.0357   0.0000   0.2459
  -2.800  -0.3153   0.00555   0.00104   0.0003  0.6556  0.1775  -1.0033   0.0000   0.2459
  -2.700  -0.3041   0.00552   0.00101   0.0003  0.6463  0.1843  -0.9714   0.0000   0.2460
  -2.600  -0.2929   0.00548   0.00098   0.0003  0.6381  0.1927  -0.9399   0.0000   0.2461
  -2.500  -0.2818   0.00546   0.00096   0.0003  0.6288  0.2005  -0.9097   0.0000   0.2462
  -2.400  -0.2705   0.00543   0.00094   0.0003  0.6203  0.2078  -0.8806   0.0000   0.2462
  -2.300  -0.2593   0.00541   0.00091   0.0003  0.6117  0.2154  -0.8518   0.0000   0.2463
  -2.200  -0.2481   0.00538   0.00089   0.0003  0.6024  0.2241  -0.8245   0.0000   0.2464
  -2.100  -0.2368   0.00535   0.00087   0.0003  0.5942  0.2323  -0.7978   0.0000   0.2464
  -2.000  -0.2256   0.00533   0.00085   0.0003  0.5850  0.2400  -0.7717   0.0000   0.2465
  -1.900  -0.2143   0.00531   0.00083   0.0003  0.5766  0.2483  -0.7471   0.0000   0.2465
  -1.800  -0.2031   0.00528   0.00082   0.0003  0.5681  0.2573  -0.7226   0.0000   0.2466
  -1.700  -0.1919   0.00526   0.00080   0.0003  0.5589  0.2652  -0.6998   0.0000   0.2467
  -1.500  -0.1694   0.00522   0.00077   0.0002  0.5416  0.2825  -0.6558   0.0000   0.2468
  -1.400  -0.1581   0.00520   0.00076   0.0002  0.5333  0.2910  -0.6348   0.0000   0.2468
  -1.300  -0.1468   0.00519   0.00075   0.0002  0.5248  0.2991  -0.6148   0.0000   0.2468
  -1.200  -0.1355   0.00518   0.00073   0.0002  0.5156  0.3080  -0.5956   0.0000   0.2469
  -1.100  -0.1243   0.00515   0.00072   0.0002  0.5075  0.3171  -0.5769   0.0000   0.2469
  -1.000  -0.1130   0.00515   0.00071   0.0002  0.4985  0.3251  -0.5593   0.0000   0.2469
  -0.900  -0.1017   0.00514   0.00070   0.0001  0.4901  0.3340  -0.5421   0.0000   0.2470
  -0.800  -0.0904   0.00512   0.00069   0.0001  0.4817  0.3431  -0.5255   0.0000   0.2470
  -0.700  -0.0791   0.00512   0.00069   0.0001  0.4724  0.3512  -0.5097   0.0000   0.2470
  -0.600  -0.0678   0.00511   0.00068   0.0001  0.4644  0.3600  -0.4943   0.0000   0.2470
  -0.500  -0.0565   0.00510   0.00068   0.0001  0.4555  0.3692  -0.4795   0.0000   0.2471
  -0.400  -0.0452   0.00510   0.00068   0.0001  0.4468  0.3772  -0.4653   0.0000   0.2470
  -0.300  -0.0339   0.00509   0.00067   0.0000  0.4386  0.3863  -0.4515   0.0000   0.2470
  -0.100  -0.0113   0.00509   0.00067   0.0000  0.4211  0.4032  -0.4253   0.0000   0.2467
   0.000   0.0000   0.00508   0.00067  -0.0000  0.4125  0.4125  -0.4128   0.0000   0.4663
   0.100   0.0113   0.00509   0.00067  -0.0000  0.4032  0.4212  -0.4253   0.0000   0.2467
   0.300   0.0339   0.00509   0.00067  -0.0000  0.3863  0.4386  -0.4515   0.0000   0.2470
   0.400   0.0452   0.00510   0.00068  -0.0001  0.3773  0.4468  -0.4653   0.0000   0.2470
   0.500   0.0565   0.00510   0.00068  -0.0001  0.3692  0.4554  -0.4795   0.0000   0.2471
   0.600   0.0678   0.00511   0.00068  -0.0001  0.3600  0.4644  -0.4943   0.0000   0.2470
   0.700   0.0791   0.00512   0.00069  -0.0001  0.3512  0.4724  -0.5097   0.0000   0.2470
   0.800   0.0904   0.00512   0.00069  -0.0001  0.3431  0.4817  -0.5255   0.0000   0.2470
   0.900   0.1017   0.00514   0.00070  -0.0001  0.3340  0.4901  -0.5421   0.0000   0.2470
   1.000   0.1130   0.00515   0.00071  -0.0002  0.3251  0.4985  -0.5593   0.0000   0.2469
   1.100   0.1243   0.00515   0.00072  -0.0002  0.3171  0.5076  -0.5769   0.0000   0.2469
   1.200   0.1355   0.00518   0.00073  -0.0002  0.3080  0.5156  -0.5956   0.0000   0.2469
   1.300   0.1468   0.00519   0.00075  -0.0002  0.2991  0.5248  -0.6148   0.0000   0.2468
   1.400   0.1581   0.00520   0.00076  -0.0002  0.2910  0.5333  -0.6348   0.0000   0.2468
   1.500   0.1694   0.00522   0.00077  -0.0002  0.2825  0.5416  -0.6558   0.0000   0.2468
   1.700   0.1919   0.00526   0.00080  -0.0003  0.2652  0.5589  -0.6998   0.0000   0.2467
   1.800   0.2031   0.00528   0.00082  -0.0003  0.2573  0.5681  -0.7227   0.0000   0.2466
   1.900   0.2143   0.00531   0.00083  -0.0003  0.2483  0.5766  -0.7471   0.0000   0.2465
   2.000   0.2256   0.00533   0.00085  -0.0003  0.2400  0.5850  -0.7717   0.0000   0.2465
   2.100   0.2368   0.00535   0.00087  -0.0003  0.2323  0.5943  -0.7978   0.0000   0.2464
   2.200   0.2481   0.00538   0.00089  -0.0003  0.2241  0.6024  -0.8245   0.0000   0.2464
   2.300   0.2593   0.00541   0.00091  -0.0003  0.2154  0.6117  -0.8518   0.0000   0.2463
   2.400   0.2705   0.00543   0.00094  -0.0003  0.2078  0.6203  -0.8806   0.0000   0.2462
   2.500   0.2818   0.00546   0.00096  -0.0003  0.2005  0.6288  -0.9097   0.0000   0.2462
   2.600   0.2929   0.00548   0.00098  -0.0003  0.1927  0.6381  -0.9399   0.0000   0.2461
   2.700   0.3041   0.00552   0.00101  -0.0003  0.1843  0.6463  -0.9714   0.0000   0.2460
   2.800   0.3153   0.00555   0.00104  -0.0003  0.1775  0.6556  -1.0033   0.0000   0.2459
   2.900   0.3265   0.00557   0.00106  -0.0003  0.1708  0.6643  -1.0357   0.0000   0.2459
   3.000   0.3377   0.00562   0.00109  -0.0003  0.1630  0.6727  -1.0704   0.0000   0.2458
   3.100   0.3488   0.00565   0.00112  -0.0003  0.1560  0.6821  -1.1053   0.0000   0.2457
   3.200   0.3601   0.00568   0.00115  -0.0003  0.1496  0.6904  -1.1406   0.0000   0.2456
   3.300   0.3712   0.00571   0.00118  -0.0003  0.1433  0.6996  -1.1765   0.0000   0.2455
   3.400   0.3824   0.00574   0.00122  -0.0003  0.1370  0.7084  -1.2150   0.0000   0.2454
   3.500   0.3936   0.00578   0.00125  -0.0003  0.1310  0.7167  -1.2541   0.0000   0.2454
   3.600   0.4047   0.00582   0.00128  -0.0002  0.1245  0.7261  -1.2932   0.0000   0.2452
   3.700   0.4158   0.00586   0.00132  -0.0002  0.1186  0.7344  -1.3327   0.0000   0.2451
   3.800   0.4270   0.00588   0.00135  -0.0002  0.1144  0.7433  -1.3734   0.0000   0.2451
   3.900   0.4381   0.00592   0.00139  -0.0002  0.1086  0.7521  -1.4167   0.0000   0.2450
   4.000   0.4493   0.00596   0.00143  -0.0002  0.1037  0.7603  -1.4606   0.0000   0.2449
   4.100   0.4604   0.00600   0.00146  -0.0002  0.0987  0.7693  -1.5048   0.0000   0.2448
   4.200   0.4715   0.00605   0.00151  -0.0001  0.0933  0.7775  -1.5491   0.0000   0.2446
   4.300   0.4827   0.00607   0.00154  -0.0001  0.0902  0.7859  -1.5944   0.0000   0.2446
   4.400   0.4937   0.00612   0.00159  -0.0001  0.0856  0.7944  -1.6395   0.0000   0.2444
   4.500   0.5049   0.00615   0.00163  -0.0001  0.0827  0.8022  -1.6891   0.0000   0.2444
   4.600   0.5160   0.00619   0.00167  -0.0000  0.0781  0.8107  -1.7387   0.0000   0.2442
   4.700   0.5271   0.00623   0.00171  -0.0000  0.0750  0.8185  -1.7892   0.0000   0.2441
   4.800   0.5381   0.00628   0.00176   0.0000  0.0708  0.8263  -1.8398   0.0000   0.2440
   4.900   0.5492   0.00631   0.00180   0.0000  0.0684  0.8342  -1.8912   0.0000   0.2439
   5.000   0.5603   0.00636   0.00185   0.0001  0.0648  0.8414  -1.9426   0.0000   0.2437
   5.100   0.5714   0.00639   0.00189   0.0001  0.0629  0.8492  -1.9949   0.0000   0.2436
   5.200   0.5825   0.00644   0.00194   0.0001  0.0603  0.8561  -2.0474   0.0000   0.2435
   5.300   0.5935   0.00648   0.00199   0.0002  0.0577  0.8635  -2.1036   0.0000   0.2434
   5.400   0.6046   0.00652   0.00203   0.0002  0.0557  0.8701  -2.1616   0.0000   0.2432
   5.500   0.6155   0.00658   0.00209   0.0003  0.0526  0.8769  -2.2196   0.0000   0.2431
   5.600   0.6265   0.00661   0.00213   0.0003  0.0509  0.8833  -2.2785   0.0000   0.2429
   5.700   0.6376   0.00666   0.00219   0.0004  0.0489  0.8897  -2.3379   0.0000   0.2428
   5.800   0.6484   0.00672   0.00224   0.0004  0.0464  0.8958  -2.3972   0.0000   0.2426
   5.900   0.6596   0.00676   0.00229   0.0005  0.0454  0.9016  -2.4580   0.0000   0.2425
   6.000   0.6705   0.00680   0.00234   0.0005  0.0439  0.9074  -2.5186   0.0000   0.2423
   6.100   0.6814   0.00686   0.00240   0.0006  0.0421  0.9129  -2.5796   0.0000   0.2422
   6.200   0.6923   0.00691   0.00245   0.0007  0.0406  0.9182  -2.6411   0.0000   0.2420
   6.300   0.7033   0.00695   0.00250   0.0007  0.0396  0.9233  -2.7035   0.0000   0.2418
   6.400   0.7141   0.00700   0.00256   0.0008  0.0384  0.9281  -2.7687   0.0000   0.2416
   6.500   0.7248   0.00707   0.00262   0.0009  0.0366  0.9330  -2.8365   0.0000   0.2414
   6.600   0.7357   0.00712   0.00268   0.0010  0.0354  0.9373  -2.9052   0.0000   0.2413
   6.700   0.7465   0.00717   0.00273   0.0011  0.0345  0.9419  -2.9745   0.0000   0.2411
   6.800   0.7573   0.00723   0.00279   0.0012  0.0333  0.9459  -3.0444   0.0000   0.2409
   6.900   0.7678   0.00730   0.00286   0.0013  0.0320  0.9499  -3.1137   0.0000   0.2406
   7.000   0.7785   0.00736   0.00292   0.0014  0.0308  0.9539  -3.1844   0.0000   0.2404
   7.100   0.7892   0.00741   0.00297   0.0016  0.0304  0.9573  -3.2557   0.0000   0.2402
   7.200   0.7998   0.00746   0.00303   0.0017  0.0297  0.9610  -3.3273   0.0000   0.2399
   7.400   0.8208   0.00760   0.00316   0.0020  0.0280  0.9675  -3.4711   0.0000   0.2394
   7.500   0.8312   0.00767   0.00323   0.0022  0.0268  0.9707  -3.5434   0.0000   0.2392
   7.600   0.8418   0.00773   0.00329   0.0023  0.0263  0.9735  -3.6171   0.0000   0.2389
   7.700   0.8522   0.00779   0.00335   0.0025  0.0259  0.9763  -3.6910   0.0000   0.2386
   7.800   0.8627   0.00785   0.00341   0.0026  0.0254  0.9790  -3.7656   0.0000   0.2384
   7.900   0.8733   0.00792   0.00348   0.0028  0.0248  0.9813  -3.8410   0.0000   0.2382
   8.000   0.8839   0.00800   0.00355   0.0029  0.0241  0.9835  -3.9171   0.0000   0.2380
   8.100   0.8944   0.00808   0.00362   0.0030  0.0231  0.9859  -3.9992   0.0000   0.2378
   8.200   0.9054   0.00816   0.00370   0.0030  0.0222  0.9877  -4.0834   0.0000   0.2377
   8.300   0.9170   0.00823   0.00376   0.0029  0.0220  0.9890  -4.1715   0.0000   0.2378
   8.400   0.9285   0.00829   0.00383   0.0028  0.0217  0.9905  -4.2598   0.0000   0.2378
   8.500   0.9396   0.00837   0.00389   0.0028  0.0213  0.9921  -4.3471   0.0000   0.2377
   8.600   0.9512   0.00845   0.00397   0.0027  0.0208  0.9933  -4.4369   0.0000   0.2378
   8.700   0.9634   0.00854   0.00405   0.0024  0.0203  0.9939  -4.5297   0.0000   0.2380
   8.800   0.9754   0.00864   0.00414   0.0022  0.0196  0.9946  -4.6223   0.0000   0.2381
   8.900   0.9874   0.00874   0.00423   0.0020  0.0188  0.9953  -4.7153   0.0000   0.2383
   9.000   0.9995   0.00882   0.00431   0.0017  0.0184  0.9960  -4.8097   0.0000   0.2384
   9.100   1.0117   0.00890   0.00439   0.0015  0.0183  0.9965  -4.9060   0.0000   0.2386
   9.200   1.0239   0.00898   0.00446   0.0012  0.0181  0.9970  -5.0029   0.0000   0.2388
   9.300   1.0361   0.00906   0.00454   0.0009  0.0179  0.9974  -5.1002   0.0000   0.2389
   9.400   1.0485   0.00915   0.00463   0.0006  0.0176  0.9976  -5.1993   0.0000   0.2391
   9.500   1.0609   0.00924   0.00471   0.0003  0.0173  0.9978  -5.2992   0.0000   0.2393
   9.600   1.0732   0.00934   0.00481  -0.0000  0.0169  0.9980  -5.3994   0.0000   0.2395
   9.700   1.0855   0.00945   0.00491  -0.0004  0.0164  0.9982  -5.4998   0.0000   0.2396
   9.800   1.0977   0.00956   0.00501  -0.0007  0.0159  0.9985  -5.6004   0.0000   0.2398
   9.900   1.1099   0.00967   0.00512  -0.0009  0.0153  0.9987  -5.7011   0.0000   0.2399
  10.000   1.1221   0.00978   0.00522  -0.0012  0.0150  0.9990  -5.8029   0.0000   0.2400
  10.100   1.1343   0.00986   0.00531  -0.0015  0.0149  0.9992  -5.9070   0.0000   0.2401
  10.200   1.1466   0.00995   0.00539  -0.0018  0.0149  0.9994  -6.0117   0.0000   0.2402
  10.300   1.1588   0.01004   0.00548  -0.0021  0.0147  0.9996  -6.1169   0.0000   0.2403
  10.400   1.1709   0.01013   0.00557  -0.0024  0.0146  0.9998  -6.2227   0.0000   0.2404
  10.500   1.1827   0.01023   0.00567  -0.0026  0.0144  1.0000  -6.3303   0.0000   0.2404
  10.600   1.1914   0.01032   0.00576  -0.0021  0.0142  1.0000  -6.4277   0.0000   0.2399
  10.700   1.2001   0.01041   0.00585  -0.0017  0.0139  1.0000  -6.5260   0.0000   0.2393
  10.800   1.2089   0.01051   0.00595  -0.0012  0.0137  1.0000  -6.6252   0.0000   0.2388
  10.900   1.2177   0.01062   0.00605  -0.0008  0.0135  1.0000  -6.7252   0.0000   0.2383
  11.000   1.2266   0.01073   0.00616  -0.0004  0.0132  1.0000  -6.8259   0.0000   0.2378
  11.100   1.2355   0.01084   0.00627   0.0000  0.0129  1.0000  -6.9273   0.0000   0.2374
  11.200   1.2445   0.01096   0.00638   0.0004  0.0125  1.0000  -7.0291   0.0000   0.2369
  11.300   1.2536   0.01108   0.00650   0.0008  0.0122  1.0000  -7.1315   0.0000   0.2365
  11.400   1.2627   0.01120   0.00663   0.0011  0.0119  1.0000  -7.2347   0.0000   0.2361
  11.500   1.2723   0.01129   0.00672   0.0014  0.0119  1.0000  -7.3428   0.0000   0.2357
  11.600   1.2819   0.01139   0.00682   0.0016  0.0119  1.0000  -7.4518   0.0000   0.2354
  11.700   1.2916   0.01148   0.00692   0.0019  0.0118  1.0000  -7.5617   0.0000   0.2351
  11.800   1.3013   0.01158   0.00702   0.0021  0.0118  1.0000  -7.6724   0.0000   0.2347
  11.900   1.3111   0.01168   0.00712   0.0023  0.0117  1.0000  -7.7839   0.0000   0.2344
  12.000   1.3208   0.01179   0.00723   0.0025  0.0116  1.0000  -7.8961   0.0000   0.2342
  12.100   1.3306   0.01189   0.00734   0.0027  0.0116  1.0000  -8.0088   0.0000   0.2339
  12.200   1.3403   0.01200   0.00745   0.0029  0.0115  1.0000  -8.1220   0.0000   0.2336
  12.300   1.3500   0.01212   0.00757   0.0031  0.0114  1.0000  -8.2357   0.0000   0.2333
  12.400   1.3597   0.01223   0.00768   0.0033  0.0112  1.0000  -8.3499   0.0000   0.2330
  12.500   1.3693   0.01236   0.00781   0.0035  0.0111  1.0000  -8.4644   0.0000   0.2327
  12.600   1.3789   0.01248   0.00793   0.0038  0.0110  1.0000  -8.5793   0.0000   0.2324
  12.700   1.3885   0.01261   0.00806   0.0040  0.0109  1.0000  -8.6944   0.0000   0.2321
  12.800   1.3979   0.01275   0.00820   0.0042  0.0107  1.0000  -8.8098   0.0000   0.2318
  12.900   1.4073   0.01289   0.00834   0.0044  0.0105  1.0000  -8.9252   0.0000   0.2315
  13.000   1.4167   0.01303   0.00849   0.0047  0.0104  1.0000  -9.0407   0.0000   0.2312
  13.100   1.4259   0.01318   0.00864   0.0049  0.0102  1.0000  -9.1562   0.0000   0.2309
  13.200   1.4351   0.01334   0.00880   0.0052  0.0099  1.0000  -9.2715   0.0000   0.2305
  13.300   1.4443   0.01350   0.00896   0.0054  0.0097  1.0000  -9.3865   0.0000   0.2302
  13.400   1.4533   0.01366   0.00913   0.0057  0.0095  1.0000  -9.5013   0.0000   0.2299
  13.500   1.4623   0.01383   0.00931   0.0060  0.0093  1.0000  -9.6157   0.0000   0.2295
  13.600   1.4712   0.01400   0.00949   0.0063  0.0091  1.0000  -9.7307   0.0000   0.2292
  13.700   1.4805   0.01413   0.00962   0.0065  0.0091  1.0000  -9.8515   0.0000   0.2289
  13.800   1.4898   0.01426   0.00976   0.0067  0.0091  1.0000  -9.9726   0.0000   0.2286
  13.900   1.4991   0.01440   0.00989   0.0070  0.0091  1.0000  -10.0939   0.0000   0.2283
  14.000   1.5082   0.01453   0.01004   0.0072  0.0091  1.0000  -10.2155   0.0000   0.2280
  14.100   1.5174   0.01467   0.01018   0.0075  0.0091  1.0000  -10.3374   0.0000   0.2277
  14.200   1.5264   0.01481   0.01033   0.0077  0.0090  1.0000  -10.4594   0.0000   0.2273
  14.300   1.5354   0.01496   0.01048   0.0080  0.0090  1.0000  -10.5816   0.0000   0.2270
  14.400   1.5444   0.01510   0.01063   0.0083  0.0090  1.0000  -10.7040   0.0000   0.2267
  14.500   1.5532   0.01525   0.01078   0.0085  0.0089  1.0000  -10.8266   0.0000   0.2264
  14.600   1.5620   0.01540   0.01094   0.0088  0.0089  1.0000  -10.9493   0.0000   0.2260
  14.700   1.5707   0.01555   0.01110   0.0091  0.0089  1.0000  -11.0721   0.0000   0.2257
  14.800   1.5793   0.01571   0.01126   0.0094  0.0088  1.0000  -11.1950   0.0000   0.2253
  14.900   1.5879   0.01587   0.01143   0.0097  0.0087  1.0000  -11.3177   0.0000   0.2250
  15.000   1.5963   0.01604   0.01160   0.0101  0.0087  1.0000  -11.4401   0.0000   0.2246
  15.100   1.6046   0.01621   0.01178   0.0104  0.0086  1.0000  -11.5622   0.0000   0.2243
  15.200   1.6127   0.01638   0.01196   0.0108  0.0085  1.0000  -11.6841   0.0000   0.2239
  15.300   1.6208   0.01656   0.01214   0.0112  0.0085  1.0000  -11.8055   0.0000   0.2235
  15.400   1.6286   0.01675   0.01234   0.0116  0.0084  1.0000  -11.9264   0.0000   0.2231
  15.500   1.6364   0.01694   0.01254   0.0120  0.0083  1.0000  -12.0534   0.0000   0.2227
  15.600   1.6440   0.01714   0.01274   0.0124  0.0082  1.0000  -12.1802   0.0000   0.2223
  15.700   1.6514   0.01734   0.01295   0.0129  0.0082  1.0000  -12.3064   0.0000   0.2218
  15.800   1.6587   0.01755   0.01317   0.0133  0.0081  1.0000  -12.4315   0.0000   0.2214
  15.900   1.6656   0.01776   0.01339   0.0138  0.0080  1.0000  -12.5553   0.0000   0.2209
  16.000   1.6723   0.01798   0.01362   0.0144  0.0079  1.0000  -12.6771   0.0000   0.2204
  16.100   1.6780   0.01820   0.01385   0.0151  0.0078  1.0000  -12.7930   0.0000   0.2198
  16.200   1.6832   0.01843   0.01408   0.0160  0.0077  1.0000  -12.9054   0.0000   0.2192
  16.300   1.6882   0.01867   0.01433   0.0168  0.0076  1.0000  -13.0161   0.0000   0.2185
  16.400   1.6930   0.01892   0.01459   0.0177  0.0075  1.0000  -13.1259   0.0000   0.2178
  16.500   1.6977   0.01918   0.01487   0.0185  0.0074  1.0000  -13.2349   0.0000   0.2172
  16.600   1.7023   0.01946   0.01516   0.0193  0.0073  1.0000  -13.3431   0.0000   0.2165
  16.700   1.7067   0.01975   0.01546   0.0201  0.0072  1.0000  -13.4503   0.0000   0.2159
  16.800   1.7110   0.02005   0.01578   0.0209  0.0071  1.0000  -13.5566   0.0000   0.2153
  16.900   1.7151   0.02038   0.01612   0.0217  0.0070  1.0000  -13.6614   0.0000   0.2146
  17.000   1.7191   0.02072   0.01648   0.0225  0.0069  1.0000  -13.7649   0.0000   0.2140
  17.100   1.7228   0.02107   0.01686   0.0232  0.0069  1.0000  -13.8665   0.0000   0.2134
  17.200   1.7263   0.02146   0.01726   0.0240  0.0068  1.0000  -13.9663   0.0000   0.2128
  17.300   1.7305   0.02180   0.01763   0.0246  0.0067  1.0000  -14.0740   0.0000   0.2122
  17.400   1.7350   0.02213   0.01797   0.0252  0.0067  1.0000  -14.1849   0.0000   0.2117
  17.500   1.7395   0.02248   0.01833   0.0258  0.0067  1.0000  -14.2956   0.0000   0.2112
  17.600   1.7438   0.02284   0.01870   0.0263  0.0067  1.0000  -14.4057   0.0000   0.2107
  17.700   1.7480   0.02321   0.01910   0.0269  0.0067  1.0000  -14.5148   0.0000   0.2102
  17.800   1.7521   0.02360   0.01950   0.0274  0.0067  1.0000  -14.6230   0.0000   0.2097
  17.900   1.7560   0.02401   0.01993   0.0279  0.0067  1.0000  -14.7302   0.0000   0.2093
  18.000   1.7598   0.02444   0.02038   0.0284  0.0067  1.0000  -14.8367   0.0000   0.2088
  18.100   1.7636   0.02489   0.02084   0.0288  0.0067  1.0000  -14.9427   0.0000   0.2084
  18.200   1.7671   0.02536   0.02133   0.0293  0.0067  1.0000  -15.0469   0.0000   0.2079
  18.300   1.7704   0.02586   0.02185   0.0297  0.0067  1.0000  -15.1495   0.0000   0.2075
  18.400   1.7737   0.02637   0.02238   0.0301  0.0067  1.0000  -15.2516   0.0000   0.2071
  18.500   1.7768   0.02691   0.02294   0.0304  0.0067  1.0000  -15.3526   0.0000   0.2067
  18.600   1.7798   0.02749   0.02353   0.0308  0.0066  1.0000  -15.4520   0.0000   0.2063
  18.700   1.7825   0.02808   0.02415   0.0311  0.0066  1.0000  -15.5499   0.0000   0.2059
  18.800   1.7851   0.02871   0.02479   0.0313  0.0066  1.0000  -15.6460   0.0000   0.2055
  18.900   1.7874   0.02936   0.02547   0.0316  0.0066  1.0000  -15.7402   0.0000   0.2052
  19.000   1.7896   0.03006   0.02618   0.0318  0.0066  1.0000  -15.8325   0.0000   0.2049
  19.100   1.7916   0.03078   0.02693   0.0319  0.0066  1.0000  -15.9235   0.0000   0.2045
  19.200   1.7935   0.03154   0.02771   0.0321  0.0066  1.0000  -16.0129   0.0000   0.2042
  19.300   1.7951   0.03234   0.02853   0.0322  0.0066  1.0000  -16.1001   0.0000   0.2040
  19.400   1.7963   0.03318   0.02940   0.0322  0.0066  1.0000  -16.1834   0.0000   0.2037
  19.500   1.7972   0.03407   0.03031   0.0322  0.0065  1.0000  -16.2641   0.0000   0.2034
  19.600   1.7980   0.03500   0.03127   0.0322  0.0065  1.0000  -16.3428   0.0000   0.2032
  19.700   1.7986   0.03598   0.03227   0.0321  0.0065  1.0000  -16.4192   0.0000   0.2030
  19.800   1.7988   0.03700   0.03332   0.0320  0.0065  1.0000  -16.4928   0.0000   0.2028
  19.900   1.7988   0.03808   0.03442   0.0318  0.0065  1.0000  -16.5629   0.0000   0.2026
  20.000   1.7984   0.03922   0.03559   0.0316  0.0065  1.0000  -16.6291   0.0000   0.2025
  20.100   1.7975   0.04042   0.03682   0.0314  0.0065  1.0000  -16.6900   0.0000   0.2023
  20.200   1.7961   0.04169   0.03812   0.0310  0.0064  1.0000  -16.7467   0.0000   0.2022
  20.300   1.7945   0.04302   0.03948   0.0307  0.0064  1.0000  -16.7996   0.0000   0.2021
  20.400   1.7924   0.04442   0.04091   0.0303  0.0064  1.0000  -16.8481   0.0000   0.2021
  20.500   1.7900   0.04590   0.04242   0.0298  0.0064  1.0000  -16.8919   0.0000   0.2020
  20.600   1.7871   0.04745   0.04401   0.0293  0.0064  1.0000  -16.9305   0.0000   0.2020
  20.700   1.7836   0.04909   0.04568   0.0287  0.0064  1.0000  -16.9633   0.0000   0.2020
  20.800   1.7795   0.05082   0.04744   0.0280  0.0064  1.0000  -16.9885   0.0000   0.2021
  20.900   1.7748   0.05265   0.04930   0.0273  0.0063  1.0000  -17.0069   0.0000   0.2021
  21.000   1.7696   0.05458   0.05127   0.0265  0.0063  1.0000  -17.0188   0.0000   0.2022
  21.100   1.7638   0.05662   0.05336   0.0257  0.0063  1.0000  -17.0235   0.0000   0.2024
  21.200   1.7573   0.05878   0.05556   0.0247  0.0063  1.0000  -17.0203   0.0000   0.2026
  21.300   1.7502   0.06106   0.05788   0.0237  0.0063  1.0000  -17.0086   0.0000   0.2028
  21.400   1.7421   0.06347   0.06033   0.0226  0.0063  1.0000  -16.9864   0.0000   0.2031
  21.500   1.7332   0.06601   0.06291   0.0214  0.0063  1.0000  -16.9537   0.0000   0.2034
  21.600   1.7236   0.06869   0.06563   0.0202  0.0063  1.0000  -16.9122   0.0000   0.2037
  21.700   1.7133   0.07150   0.06849   0.0189  0.0063  1.0000  -16.8613   0.0000   0.2041
  21.800   1.7020   0.07449   0.07153   0.0174  0.0063  1.0000  -16.7980   0.0000   0.2046
  21.900   1.6893   0.07773   0.07482   0.0158  0.0063  1.0000  -16.7165   0.0000   0.2052
  22.000   1.6749   0.08119   0.07834   0.0141  0.0063  1.0000  -16.6153   0.0000   0.2058
  22.100   1.6601   0.08477   0.08198   0.0123  0.0063  1.0000  -16.5059   0.0000   0.2065
  22.200   1.6447   0.08848   0.08574   0.0104  0.0063  1.0000  -16.3880   0.0000   0.2073
  22.300   1.6276   0.09252   0.08985   0.0084  0.0063  1.0000  -16.2462   0.0000   0.2082
  22.400   1.6082   0.09696   0.09435   0.0060  0.0063  1.0000  -16.0750   0.0000   0.2093
  22.500   1.5889   0.10137   0.09882   0.0037  0.0063  1.0000  -15.9010   0.0000   0.2104
  22.600   1.5682   0.10608   0.10360   0.0012  0.0063  1.0000  -15.7063   0.0000   0.2116
  22.700   1.5445   0.11138   0.10897  -0.0017  0.0063  1.0000  -15.4698   0.0000   0.2132
  22.800   1.5228   0.11641   0.11407  -0.0044  0.0063  1.0000  -15.2510   0.0000   0.2148
  22.900   1.4959   0.12236   0.12010  -0.0078  0.0063  1.0000  -14.9619   0.0000   0.2168
  23.000   1.4715   0.12797   0.12579  -0.0110  0.0064  1.0000  -14.6952   0.0000   0.2188
  23.100   1.4441   0.13429   0.13219  -0.0148  0.0064  1.0000  -14.3799   0.0000   0.2213
  23.200   1.4181   0.14048   0.13845  -0.0185  0.0064  1.0000  -14.0715   0.0000   0.2239
  23.300   1.3931   0.14661   0.14466  -0.0223  0.0064  1.0000  -13.7659   0.0000   0.2266
  23.400   1.3632   0.15377   0.15191  -0.0269  0.0064  1.0000  -13.3786   0.0000   0.2301
  23.500   1.3400   0.15984   0.15805  -0.0308  0.0064  1.0000  -13.0727   0.0000   0.2332
  23.600   1.3105   0.16744   0.16573  -0.0359  0.0064  1.0000  -12.6531   0.0000   0.2374
  23.700   1.2887   0.17363   0.17199  -0.0401  0.0064  1.0000  -12.3357   0.0000   0.2409
  23.800   1.2689   0.17960   0.17802  -0.0441  0.0064  1.0000  -12.0344   0.0000   0.2445
  23.900   1.2501   0.18536   0.18384  -0.0481  0.0064  1.0000  -11.7378   0.0000   0.2481
  24.000   1.2329   0.19092   0.18946  -0.0520  0.0064  1.0000  -11.4552   0.0000   0.2517
  24.100   1.2173   0.19634   0.19493  -0.0558  0.0064  1.0000  -11.1843   0.0000   0.2552
  24.200   1.2032   0.20149   0.20013  -0.0595  0.0064  1.0000  -10.9281   0.0000   0.2587
  24.300   1.1974   0.20467   0.20334  -0.0618  0.0064  1.0000  -10.8226   0.0000   0.2607
  24.400   1.1857   0.20945   0.20816  -0.0652  0.0064  1.0000  -10.5929   0.0000   0.2639
  24.500   1.1757   0.21389   0.21264  -0.0683  0.0064  1.0000  -10.3860   0.0000   0.2670
  24.600   1.1716   0.21680   0.21557  -0.0705  0.0063  1.0000  -10.2952   0.0000   0.2688
  24.700   1.1685   0.21945   0.21824  -0.0724  0.0063  1.0000  -10.2238   0.0000   0.2705
  24.800   1.1600   0.22371   0.22253  -0.0754  0.0063  1.0000  -10.0265   0.0000   0.2734
  24.900   1.1583   0.22602   0.22485  -0.0772  0.0063  1.0000  -9.9771   0.0000   0.2748
  25.000   1.1507   0.23011   0.22898  -0.0801  0.0062  1.0000  -9.7865   0.0000   0.2777


