xflr5 v6.47

 Calculated polar for: NACA 0012

 1 1 Reynolds number fixed          Mach number fixed         

 xtrf =   1.000 (top)        1.000 (bottom)
 Mach =   0.000     Re =     7.000 e 6     Ncrit =   9.000

  alpha     CL        CD       CDp       Cm    Top Xtr Bot Xtr   Cpmin    Chinge    XCp    
 ------- -------- --------- --------- -------- ------- ------- -------- --------- ---------
 -25.000  -1.1823   0.22007   0.21888   0.0733  1.0000  0.0060  -10.5420   0.0000   0.2695
 -24.900  -1.1862   0.21725   0.21604   0.0712  1.0000  0.0061  -10.6295   0.0000   0.2677
 -24.800  -1.1984   0.21225   0.21099   0.0675  1.0000  0.0061  -10.8873   0.0000   0.2641
 -24.700  -1.2043   0.20900   0.20772   0.0651  1.0000  0.0061  -11.0046   0.0000   0.2620
 -24.600  -1.2176   0.20391   0.20258   0.0614  1.0000  0.0061  -11.2640   0.0000   0.2585
 -24.500  -1.2329   0.19849   0.19712   0.0575  1.0000  0.0061  -11.5464   0.0000   0.2548
 -24.400  -1.2494   0.19290   0.19147   0.0535  1.0000  0.0062  -11.8378   0.0000   0.2510
 -24.300  -1.2671   0.18724   0.18575   0.0494  1.0000  0.0062  -12.1342   0.0000   0.2474
 -24.200  -1.2860   0.18150   0.17995   0.0454  1.0000  0.0062  -12.4361   0.0000   0.2438
 -24.100  -1.3059   0.17562   0.17401   0.0412  1.0000  0.0062  -12.7410   0.0000   0.2402
 -24.000  -1.3268   0.16966   0.16798   0.0371  1.0000  0.0062  -13.0495   0.0000   0.2368
 -23.900  -1.3552   0.16232   0.16056   0.0321  1.0000  0.0061  -13.4576   0.0000   0.2327
 -23.800  -1.3768   0.15653   0.15470   0.0282  1.0000  0.0061  -13.7468   0.0000   0.2297
 -23.700  -1.3992   0.15077   0.14888   0.0245  1.0000  0.0061  -14.0347   0.0000   0.2269
 -23.600  -1.4247   0.14460   0.14263   0.0205  1.0000  0.0061  -14.3543   0.0000   0.2241
 -23.500  -1.4507   0.13838   0.13634   0.0167  1.0000  0.0061  -14.6705   0.0000   0.2214
 -23.400  -1.4730   0.13296   0.13084   0.0134  1.0000  0.0061  -14.9266   0.0000   0.2192
 -23.300  -1.4975   0.12725   0.12506   0.0100  1.0000  0.0060  -15.2019   0.0000   0.2171
 -23.200  -1.5224   0.12157   0.11931   0.0067  1.0000  0.0060  -15.4749   0.0000   0.2151
 -23.100  -1.5441   0.11662   0.11429   0.0039  1.0000  0.0060  -15.6973   0.0000   0.2135
 -23.000  -1.5660   0.11157   0.10918   0.0011  1.0000  0.0060  -15.9196   0.0000   0.2120
 -22.900  -1.5886   0.10649   0.10402  -0.0017  1.0000  0.0060  -16.1433   0.0000   0.2105
 -22.800  -1.6076   0.10208   0.09955  -0.0040  1.0000  0.0060  -16.3184   0.0000   0.2094
 -22.700  -1.6266   0.09776   0.09517  -0.0063  1.0000  0.0059  -16.4881   0.0000   0.2083
 -22.600  -1.6456   0.09344   0.09079  -0.0086  1.0000  0.0059  -16.6555   0.0000   0.2073
 -22.500  -1.6629   0.08940   0.08668  -0.0106  1.0000  0.0059  -16.7998   0.0000   0.2064
 -22.400  -1.6781   0.08573   0.08295  -0.0125  1.0000  0.0059  -16.9169   0.0000   0.2057
 -22.300  -1.6927   0.08219   0.07937  -0.0142  1.0000  0.0059  -17.0239   0.0000   0.2050
 -22.200  -1.7068   0.07879   0.07591  -0.0159  1.0000  0.0059  -17.1232   0.0000   0.2044
 -22.100  -1.7202   0.07550   0.07258  -0.0175  1.0000  0.0059  -17.2115   0.0000   0.2039
 -22.000  -1.7322   0.07241   0.06943  -0.0190  1.0000  0.0059  -17.2838   0.0000   0.2034
 -21.900  -1.7431   0.06952   0.06649  -0.0204  1.0000  0.0059  -17.3414   0.0000   0.2030
 -21.800  -1.7531   0.06681   0.06374  -0.0217  1.0000  0.0059  -17.3866   0.0000   0.2026
 -21.700  -1.7623   0.06423   0.06112  -0.0228  1.0000  0.0060  -17.4227   0.0000   0.2023
 -21.600  -1.7709   0.06178   0.05863  -0.0239  1.0000  0.0060  -17.4501   0.0000   0.2021
 -21.500  -1.7786   0.05946   0.05626  -0.0249  1.0000  0.0060  -17.4667   0.0000   0.2019
 -21.400  -1.7855   0.05724   0.05401  -0.0259  1.0000  0.0060  -17.4745   0.0000   0.2017
 -21.300  -1.7918   0.05515   0.05187  -0.0268  1.0000  0.0060  -17.4747   0.0000   0.2015
 -21.200  -1.7975   0.05315   0.04984  -0.0276  1.0000  0.0060  -17.4674   0.0000   0.2014
 -21.100  -1.8027   0.05127   0.04792  -0.0283  1.0000  0.0060  -17.4535   0.0000   0.2014
 -21.000  -1.8073   0.04948   0.04610  -0.0290  1.0000  0.0061  -17.4334   0.0000   0.2013
 -20.900  -1.8114   0.04779   0.04437  -0.0296  1.0000  0.0061  -17.4059   0.0000   0.2013
 -20.800  -1.8148   0.04618   0.04273  -0.0301  1.0000  0.0061  -17.3716   0.0000   0.2013
 -20.700  -1.8177   0.04465   0.04117  -0.0306  1.0000  0.0061  -17.3321   0.0000   0.2014
 -20.600  -1.8203   0.04320   0.03969  -0.0310  1.0000  0.0061  -17.2875   0.0000   0.2015
 -20.500  -1.8224   0.04182   0.03829  -0.0314  1.0000  0.0062  -17.2382   0.0000   0.2015
 -20.400  -1.8241   0.04052   0.03695  -0.0317  1.0000  0.0062  -17.1849   0.0000   0.2017
 -20.300  -1.8255   0.03928   0.03568  -0.0320  1.0000  0.0062  -17.1272   0.0000   0.2018
 -20.200  -1.8264   0.03811   0.03449  -0.0322  1.0000  0.0062  -17.0640   0.0000   0.2020
 -20.100  -1.8267   0.03700   0.03335  -0.0323  1.0000  0.0062  -16.9961   0.0000   0.2022
 -20.000  -1.8268   0.03595   0.03227  -0.0324  1.0000  0.0063  -16.9246   0.0000   0.2024
 -19.900  -1.8266   0.03494   0.03125  -0.0325  1.0000  0.0063  -16.8502   0.0000   0.2026
 -19.800  -1.8262   0.03398   0.03026  -0.0325  1.0000  0.0063  -16.7734   0.0000   0.2028
 -19.700  -1.8255   0.03307   0.02933  -0.0325  1.0000  0.0063  -16.6943   0.0000   0.2031
 -19.600  -1.8246   0.03221   0.02844  -0.0324  1.0000  0.0064  -16.6123   0.0000   0.2034
 -19.500  -1.8233   0.03139   0.02761  -0.0323  1.0000  0.0064  -16.5266   0.0000   0.2037
 -19.400  -1.8217   0.03062   0.02681  -0.0322  1.0000  0.0064  -16.4380   0.0000   0.2040
 -19.300  -1.8199   0.02988   0.02605  -0.0320  1.0000  0.0064  -16.3478   0.0000   0.2043
 -19.200  -1.8180   0.02917   0.02532  -0.0318  1.0000  0.0064  -16.2560   0.0000   0.2047
 -19.100  -1.8158   0.02850   0.02463  -0.0316  1.0000  0.0065  -16.1616   0.0000   0.2050
 -19.000  -1.8134   0.02787   0.02398  -0.0313  1.0000  0.0065  -16.0657   0.0000   0.2054
 -18.900  -1.8109   0.02726   0.02335  -0.0310  1.0000  0.0065  -15.9684   0.0000   0.2058
 -18.800  -1.8081   0.02669   0.02276  -0.0306  1.0000  0.0065  -15.8688   0.0000   0.2062
 -18.700  -1.8051   0.02614   0.02219  -0.0303  1.0000  0.0065  -15.7673   0.0000   0.2066
 -18.600  -1.8019   0.02562   0.02165  -0.0299  1.0000  0.0066  -15.6647   0.0000   0.2070
 -18.500  -1.7987   0.02512   0.02113  -0.0294  1.0000  0.0066  -15.5615   0.0000   0.2075
 -18.400  -1.7953   0.02464   0.02064  -0.0290  1.0000  0.0066  -15.4568   0.0000   0.2079
 -18.300  -1.7917   0.02419   0.02018  -0.0285  1.0000  0.0066  -15.3502   0.0000   0.2084
 -18.200  -1.7880   0.02376   0.01973  -0.0280  1.0000  0.0066  -15.2429   0.0000   0.2088
 -18.100  -1.7841   0.02335   0.01930  -0.0275  1.0000  0.0066  -15.1345   0.0000   0.2093
 -18.000  -1.7801   0.02295   0.01889  -0.0270  1.0000  0.0066  -15.0254   0.0000   0.2098
 -17.900  -1.7761   0.02258   0.01850  -0.0264  1.0000  0.0067  -14.9156   0.0000   0.2103
 -17.800  -1.7718   0.02222   0.01812  -0.0259  1.0000  0.0067  -14.8041   0.0000   0.2108
 -17.700  -1.7674   0.02187   0.01776  -0.0253  1.0000  0.0067  -14.6921   0.0000   0.2113
 -17.600  -1.7629   0.02154   0.01742  -0.0247  1.0000  0.0067  -14.5799   0.0000   0.2118
 -17.500  -1.7583   0.02123   0.01709  -0.0241  1.0000  0.0067  -14.4665   0.0000   0.2123
 -17.400  -1.7536   0.02092   0.01677  -0.0235  1.0000  0.0067  -14.3523   0.0000   0.2128
 -17.300  -1.7488   0.02063   0.01647  -0.0228  1.0000  0.0067  -14.2380   0.0000   0.2134
 -17.200  -1.7439   0.02035   0.01618  -0.0222  1.0000  0.0067  -14.1229   0.0000   0.2139
 -17.100  -1.7388   0.02009   0.01590  -0.0215  1.0000  0.0067  -14.0072   0.0000   0.2145
 -17.000  -1.7337   0.01983   0.01563  -0.0208  1.0000  0.0067  -13.8912   0.0000   0.2150
 -16.900  -1.7285   0.01958   0.01537  -0.0202  1.0000  0.0067  -13.7748   0.0000   0.2156
 -16.800  -1.7232   0.01934   0.01512  -0.0195  1.0000  0.0067  -13.6581   0.0000   0.2162
 -16.700  -1.7179   0.01911   0.01488  -0.0188  1.0000  0.0067  -13.5411   0.0000   0.2168
 -16.600  -1.7125   0.01889   0.01464  -0.0180  1.0000  0.0068  -13.4245   0.0000   0.2173
 -16.500  -1.7080   0.01862   0.01436  -0.0171  1.0000  0.0068  -13.3172   0.0000   0.2180
 -16.400  -1.7034   0.01837   0.01409  -0.0163  1.0000  0.0069  -13.2087   0.0000   0.2187
 -16.300  -1.6985   0.01814   0.01384  -0.0154  1.0000  0.0070  -13.0988   0.0000   0.2194
 -16.200  -1.6932   0.01791   0.01360  -0.0146  1.0000  0.0071  -12.9858   0.0000   0.2200
 -16.100  -1.6871   0.01768   0.01336  -0.0139  1.0000  0.0072  -12.8671   0.0000   0.2206
 -16.000  -1.6804   0.01746   0.01313  -0.0133  1.0000  0.0073  -12.7447   0.0000   0.2211
 -15.900  -1.6734   0.01724   0.01290  -0.0128  1.0000  0.0075  -12.6207   0.0000   0.2216
 -15.800  -1.6662   0.01702   0.01268  -0.0124  1.0000  0.0076  -12.4955   0.0000   0.2220
 -15.700  -1.6588   0.01681   0.01246  -0.0119  1.0000  0.0077  -12.3694   0.0000   0.2224
 -15.600  -1.6513   0.01661   0.01225  -0.0114  1.0000  0.0078  -12.2427   0.0000   0.2229
 -15.500  -1.6436   0.01641   0.01205  -0.0110  1.0000  0.0079  -12.1153   0.0000   0.2233
 -15.400  -1.6358   0.01622   0.01185  -0.0106  1.0000  0.0080  -11.9875   0.0000   0.2237
 -15.300  -1.6278   0.01603   0.01165  -0.0102  1.0000  0.0081  -11.8662   0.0000   0.2241
 -15.200  -1.6198   0.01584   0.01146  -0.0098  1.0000  0.0082  -11.7445   0.0000   0.2245
 -15.100  -1.6116   0.01566   0.01128  -0.0095  1.0000  0.0083  -11.6223   0.0000   0.2249
 -15.000  -1.6032   0.01549   0.01110  -0.0091  1.0000  0.0084  -11.4997   0.0000   0.2252
 -14.900  -1.5948   0.01532   0.01093  -0.0088  1.0000  0.0084  -11.3768   0.0000   0.2256
 -14.800  -1.5862   0.01515   0.01076  -0.0085  1.0000  0.0085  -11.2537   0.0000   0.2260
 -14.700  -1.5775   0.01499   0.01060  -0.0082  1.0000  0.0086  -11.1303   0.0000   0.2263
 -14.600  -1.5688   0.01484   0.01044  -0.0079  1.0000  0.0087  -11.0069   0.0000   0.2266
 -14.500  -1.5599   0.01469   0.01028  -0.0076  1.0000  0.0088  -10.8834   0.0000   0.2270
 -14.400  -1.5510   0.01454   0.01013  -0.0073  1.0000  0.0088  -10.7599   0.0000   0.2273
 -14.300  -1.5419   0.01440   0.00998  -0.0071  1.0000  0.0089  -10.6365   0.0000   0.2276
 -14.200  -1.5328   0.01426   0.00984  -0.0068  1.0000  0.0089  -10.5131   0.0000   0.2279
 -14.100  -1.5236   0.01413   0.00970  -0.0066  1.0000  0.0090  -10.3900   0.0000   0.2282
 -14.000  -1.5144   0.01399   0.00956  -0.0064  1.0000  0.0090  -10.2672   0.0000   0.2285
 -13.900  -1.5051   0.01386   0.00943  -0.0061  1.0000  0.0090  -10.1446   0.0000   0.2289
 -13.800  -1.4958   0.01373   0.00929  -0.0059  1.0000  0.0091  -10.0223   0.0000   0.2291
 -13.700  -1.4864   0.01361   0.00916  -0.0057  1.0000  0.0091  -9.9003   0.0000   0.2294
 -13.600  -1.4769   0.01348   0.00903  -0.0055  1.0000  0.0091  -9.7785   0.0000   0.2297
 -13.500  -1.4674   0.01336   0.00891  -0.0053  1.0000  0.0091  -9.6572   0.0000   0.2300
 -13.400  -1.4579   0.01324   0.00878  -0.0051  1.0000  0.0091  -9.5361   0.0000   0.2303
 -13.300  -1.4483   0.01312   0.00866  -0.0049  1.0000  0.0091  -9.4155   0.0000   0.2306
 -13.200  -1.4389   0.01299   0.00852  -0.0046  1.0000  0.0092  -9.2973   0.0000   0.2309
 -13.100  -1.4296   0.01283   0.00837  -0.0044  1.0000  0.0094  -9.1823   0.0000   0.2312
 -13.000  -1.4203   0.01268   0.00821  -0.0041  1.0000  0.0096  -9.0672   0.0000   0.2315
 -12.900  -1.4109   0.01254   0.00806  -0.0039  1.0000  0.0099  -8.9521   0.0000   0.2319
 -12.800  -1.4015   0.01240   0.00792  -0.0037  1.0000  0.0101  -8.8370   0.0000   0.2322
 -12.700  -1.3920   0.01226   0.00778  -0.0034  1.0000  0.0103  -8.7220   0.0000   0.2325
 -12.600  -1.3825   0.01213   0.00765  -0.0032  1.0000  0.0105  -8.6072   0.0000   0.2328
 -12.500  -1.3730   0.01199   0.00752  -0.0030  1.0000  0.0107  -8.4926   0.0000   0.2331
 -12.400  -1.3634   0.01187   0.00740  -0.0028  1.0000  0.0108  -8.3783   0.0000   0.2334
 -12.300  -1.3538   0.01175   0.00727  -0.0026  1.0000  0.0110  -8.2642   0.0000   0.2337
 -12.200  -1.3441   0.01163   0.00716  -0.0024  1.0000  0.0111  -8.1505   0.0000   0.2340
 -12.100  -1.3344   0.01152   0.00704  -0.0021  1.0000  0.0113  -8.0373   0.0000   0.2343
 -12.000  -1.3247   0.01141   0.00693  -0.0019  1.0000  0.0114  -7.9247   0.0000   0.2346
 -11.900  -1.3150   0.01130   0.00683  -0.0017  1.0000  0.0115  -7.8126   0.0000   0.2349
 -11.800  -1.3053   0.01120   0.00673  -0.0015  1.0000  0.0116  -7.7013   0.0000   0.2352
 -11.700  -1.2956   0.01110   0.00663  -0.0012  1.0000  0.0117  -7.5907   0.0000   0.2355
 -11.600  -1.2860   0.01101   0.00653  -0.0010  1.0000  0.0117  -7.4811   0.0000   0.2359
 -11.500  -1.2765   0.01092   0.00644  -0.0007  1.0000  0.0118  -7.3725   0.0000   0.2362
 -11.400  -1.2670   0.01083   0.00635  -0.0004  1.0000  0.0118  -7.2650   0.0000   0.2366
 -11.300  -1.2577   0.01074   0.00626  -0.0001  1.0000  0.0119  -7.1586   0.0000   0.2370
 -11.200  -1.2484   0.01065   0.00617   0.0002  1.0000  0.0119  -7.0531   0.0000   0.2374
 -11.100  -1.2392   0.01056   0.00608   0.0006  1.0000  0.0120  -6.9491   0.0000   0.2379
 -11.000  -1.2304   0.01045   0.00597   0.0010  1.0000  0.0123  -6.8485   0.0000   0.2384
 -10.900  -1.2216   0.01035   0.00586   0.0015  1.0000  0.0126  -6.7488   0.0000   0.2389
 -10.800  -1.2130   0.01025   0.00576   0.0020  1.0000  0.0130  -6.6501   0.0000   0.2394
 -10.700  -1.2029   0.01014   0.00566   0.0021  0.9999  0.0133  -6.5449   0.0000   0.2397
 -10.600  -1.1910   0.01002   0.00555   0.0019  0.9997  0.0136  -6.4312   0.0000   0.2397
 -10.500  -1.1791   0.00991   0.00544   0.0016  0.9995  0.0139  -6.3179   0.0000   0.2396
 -10.400  -1.1671   0.00980   0.00534   0.0014  0.9993  0.0142  -6.2109   0.0000   0.2396
 -10.300  -1.1550   0.00971   0.00525   0.0011  0.9991  0.0144  -6.1057   0.0000   0.2395
 -10.200  -1.1429   0.00961   0.00516   0.0008  0.9988  0.0146  -6.0009   0.0000   0.2394
 -10.100  -1.1307   0.00952   0.00507   0.0005  0.9986  0.0148  -5.8964   0.0000   0.2393
 -10.000  -1.1184   0.00944   0.00499   0.0002  0.9984  0.0149  -5.7925   0.0000   0.2391
  -9.900  -1.1061   0.00936   0.00491  -0.0001  0.9982  0.0150  -5.6890   0.0000   0.2390
  -9.800  -1.0937   0.00928   0.00483  -0.0004  0.9980  0.0150  -5.5861   0.0000   0.2388
  -9.700  -1.0815   0.00918   0.00473  -0.0007  0.9978  0.0155  -5.4857   0.0000   0.2387
  -9.600  -1.0692   0.00907   0.00464  -0.0010  0.9976  0.0161  -5.3856   0.0000   0.2385
  -9.500  -1.0570   0.00897   0.00454  -0.0013  0.9973  0.0166  -5.2865   0.0000   0.2384
  -9.400  -1.0452   0.00887   0.00445  -0.0015  0.9968  0.0170  -5.1894   0.0000   0.2383
  -9.300  -1.0334   0.00878   0.00436  -0.0017  0.9961  0.0174  -5.0928   0.0000   0.2382
  -9.200  -1.0215   0.00869   0.00428  -0.0019  0.9954  0.0177  -4.9967   0.0000   0.2381
  -9.100  -1.0096   0.00861   0.00421  -0.0021  0.9946  0.0180  -4.9012   0.0000   0.2380
  -9.000  -0.9976   0.00853   0.00414  -0.0023  0.9939  0.0182  -4.8056   0.0000   0.2379
  -8.900  -0.9854   0.00846   0.00407  -0.0026  0.9932  0.0184  -4.7102   0.0000   0.2377
  -8.800  -0.9740   0.00840   0.00400  -0.0026  0.9919  0.0185  -4.6188   0.0000   0.2377
  -8.700  -0.9630   0.00831   0.00392  -0.0026  0.9902  0.0191  -4.5303   0.0000   0.2378
  -8.600  -0.9517   0.00823   0.00384  -0.0027  0.9886  0.0198  -4.4413   0.0000   0.2378
  -8.500  -0.9405   0.00814   0.00377  -0.0027  0.9872  0.0205  -4.3529   0.0000   0.2379
  -8.400  -0.9299   0.00806   0.00369  -0.0026  0.9851  0.0210  -4.2677   0.0000   0.2381
  -8.300  -0.9194   0.00799   0.00363  -0.0025  0.9827  0.0214  -4.1830   0.0000   0.2383
  -8.200  -0.9088   0.00793   0.00356  -0.0023  0.9805  0.0218  -4.0990   0.0000   0.2385
  -8.100  -0.8982   0.00787   0.00350  -0.0022  0.9780  0.0221  -4.0154   0.0000   0.2387
  -8.000  -0.8878   0.00781   0.00344  -0.0020  0.9751  0.0223  -3.9329   0.0000   0.2390
  -7.900  -0.8775   0.00774   0.00337  -0.0018  0.9724  0.0234  -3.8573   0.0000   0.2393
  -7.800  -0.8670   0.00766   0.00330  -0.0017  0.9694  0.0243  -3.7821   0.0000   0.2395
  -7.700  -0.8566   0.00759   0.00323  -0.0015  0.9661  0.0250  -3.7079   0.0000   0.2398
  -7.600  -0.8462   0.00753   0.00317  -0.0014  0.9630  0.0256  -3.6337   0.0000   0.2401
  -7.500  -0.8354   0.00747   0.00311  -0.0013  0.9596  0.0260  -3.5592   0.0000   0.2403
  -7.400  -0.8248   0.00743   0.00306  -0.0011  0.9558  0.0263  -3.4858   0.0000   0.2405
  -7.300  -0.8141   0.00737   0.00300  -0.0010  0.9524  0.0271  -3.4125   0.0000   0.2407
  -7.200  -0.8034   0.00730   0.00293  -0.0009  0.9483  0.0283  -3.3403   0.0000   0.2409
  -7.100  -0.7928   0.00724   0.00287  -0.0008  0.9443  0.0292  -3.2687   0.0000   0.2412
  -7.000  -0.7819   0.00718   0.00281  -0.0007  0.9401  0.0300  -3.1968   0.0000   0.2414
  -6.800  -0.7602   0.00709   0.00271  -0.0006  0.9312  0.0310  -3.0544   0.0000   0.2417
  -6.700  -0.7494   0.00703   0.00265  -0.0005  0.9261  0.0325  -2.9847   0.0000   0.2419
  -6.600  -0.7385   0.00697   0.00258  -0.0004  0.9214  0.0338  -2.9153   0.0000   0.2421
  -6.500  -0.7277   0.00692   0.00253  -0.0003  0.9159  0.0349  -2.8462   0.0000   0.2423
  -6.400  -0.7166   0.00688   0.00248  -0.0003  0.9109  0.0356  -2.7773   0.0000   0.2424
  -6.300  -0.7057   0.00683   0.00242  -0.0002  0.9050  0.0375  -2.7112   0.0000   0.2426
  -6.200  -0.6948   0.00677   0.00237  -0.0001  0.8995  0.0390  -2.6491   0.0000   0.2428
  -6.100  -0.6838   0.00673   0.00232  -0.0001  0.8932  0.0401  -2.5870   0.0000   0.2429
  -6.000  -0.6727   0.00669   0.00227  -0.0001  0.8874  0.0408  -2.5252   0.0000   0.2430
  -5.900  -0.6617   0.00664   0.00222  -0.0000  0.8807  0.0430  -2.4645   0.0000   0.2432
  -5.800  -0.6507   0.00659   0.00216   0.0000  0.8744  0.0446  -2.4041   0.0000   0.2433
  -5.700  -0.6396   0.00656   0.00212   0.0001  0.8673  0.0458  -2.3440   0.0000   0.2435
  -5.600  -0.6285   0.00652   0.00207   0.0001  0.8608  0.0475  -2.2842   0.0000   0.2436
  -5.500  -0.6176   0.00647   0.00202   0.0001  0.8532  0.0499  -2.2256   0.0000   0.2437
  -5.400  -0.6064   0.00643   0.00198   0.0001  0.8463  0.0517  -2.1668   0.0000   0.2438
  -5.300  -0.5953   0.00639   0.00193   0.0002  0.8389  0.0544  -2.1090   0.0000   0.2440
  -5.200  -0.5843   0.00635   0.00188   0.0002  0.8311  0.0568  -2.0520   0.0000   0.2441
  -5.100  -0.5731   0.00632   0.00184   0.0002  0.8237  0.0585  -1.9991   0.0000   0.2442
  -5.000  -0.5620   0.00627   0.00179   0.0003  0.8154  0.0616  -1.9471   0.0000   0.2443
  -4.900  -0.5508   0.00624   0.00175   0.0003  0.8079  0.0638  -1.8951   0.0000   0.2444
  -4.800  -0.5397   0.00621   0.00171   0.0003  0.7996  0.0665  -1.8437   0.0000   0.2446
  -4.700  -0.5286   0.00616   0.00167   0.0003  0.7914  0.0696  -1.7928   0.0000   0.2447
  -4.600  -0.5174   0.00613   0.00163   0.0003  0.7834  0.0727  -1.7422   0.0000   0.2448
  -4.500  -0.5063   0.00609   0.00159   0.0003  0.7746  0.0768  -1.6924   0.0000   0.2449
  -4.400  -0.4951   0.00605   0.00154   0.0004  0.7666  0.0804  -1.6427   0.0000   0.2450
  -4.300  -0.4840   0.00602   0.00150   0.0004  0.7579  0.0841  -1.5972   0.0000   0.2451
  -4.200  -0.4728   0.00599   0.00147   0.0004  0.7493  0.0875  -1.5519   0.0000   0.2452
  -4.100  -0.4616   0.00595   0.00143   0.0004  0.7411  0.0915  -1.5073   0.0000   0.2453
  -4.000  -0.4505   0.00592   0.00140   0.0004  0.7318  0.0958  -1.4630   0.0000   0.2454
  -3.900  -0.4392   0.00588   0.00136   0.0004  0.7237  0.1005  -1.4190   0.0000   0.2454
  -3.800  -0.4281   0.00584   0.00132   0.0004  0.7149  0.1063  -1.3756   0.0000   0.2456
  -3.700  -0.4169   0.00582   0.00129   0.0004  0.7061  0.1105  -1.3346   0.0000   0.2456
  -3.600  -0.4057   0.00578   0.00126   0.0004  0.6978  0.1157  -1.2950   0.0000   0.2457
  -3.500  -0.3945   0.00576   0.00123   0.0004  0.6884  0.1208  -1.2557   0.0000   0.2458
  -3.400  -0.3833   0.00572   0.00119   0.0004  0.6802  0.1261  -1.2166   0.0000   0.2459
  -3.300  -0.3722   0.00568   0.00116   0.0004  0.6715  0.1332  -1.1781   0.0000   0.2460
  -3.200  -0.3609   0.00565   0.00113   0.0004  0.6626  0.1391  -1.1420   0.0000   0.2461
  -3.100  -0.3496   0.00563   0.00110   0.0004  0.6543  0.1440  -1.1065   0.0000   0.2461
  -3.000  -0.3385   0.00559   0.00107   0.0004  0.6449  0.1514  -1.0716   0.0000   0.2462
  -2.900  -0.3273   0.00556   0.00105   0.0004  0.6369  0.1585  -1.0368   0.0000   0.2463
  -2.800  -0.3160   0.00554   0.00102   0.0004  0.6281  0.1645  -1.0042   0.0000   0.2464
  -2.700  -0.3048   0.00550   0.00100   0.0004  0.6193  0.1716  -0.9724   0.0000   0.2464
  -2.600  -0.2936   0.00547   0.00097   0.0004  0.6111  0.1791  -0.9408   0.0000   0.2465
  -2.500  -0.2824   0.00545   0.00095   0.0004  0.6018  0.1861  -0.9104   0.0000   0.2466
  -2.400  -0.2711   0.00542   0.00092   0.0004  0.5939  0.1932  -0.8813   0.0000   0.2466
  -2.300  -0.2599   0.00539   0.00090   0.0004  0.5850  0.2013  -0.8525   0.0000   0.2467
  -2.200  -0.2486   0.00537   0.00088   0.0004  0.5766  0.2088  -0.8250   0.0000   0.2468
  -2.000  -0.2261   0.00532   0.00084   0.0004  0.5593  0.2244  -0.7722   0.0000   0.2469
  -1.900  -0.2148   0.00530   0.00082   0.0003  0.5514  0.2325  -0.7475   0.0000   0.2469
  -1.800  -0.2035   0.00529   0.00081   0.0003  0.5421  0.2397  -0.7230   0.0000   0.2470
  -1.700  -0.1922   0.00526   0.00079   0.0003  0.5343  0.2482  -0.7000   0.0000   0.2470
  -1.600  -0.1810   0.00524   0.00077   0.0003  0.5258  0.2567  -0.6773   0.0000   0.2471
  -1.500  -0.1697   0.00522   0.00076   0.0003  0.5171  0.2646  -0.6559   0.0000   0.2471
  -1.400  -0.1584   0.00520   0.00075   0.0003  0.5092  0.2725  -0.6349   0.0000   0.2471
  -1.300  -0.1471   0.00519   0.00074   0.0003  0.4998  0.2815  -0.6151   0.0000   0.2472
  -1.200  -0.1358   0.00517   0.00073   0.0002  0.4922  0.2897  -0.5957   0.0000   0.2472
  -1.100  -0.1245   0.00516   0.00072   0.0002  0.4835  0.2972  -0.5770   0.0000   0.2473
  -1.000  -0.1132   0.00514   0.00071   0.0002  0.4751  0.3067  -0.5593   0.0000   0.2473
  -0.900  -0.1019   0.00513   0.00070   0.0002  0.4671  0.3148  -0.5421   0.0000   0.2473
  -0.800  -0.0906   0.00513   0.00069   0.0002  0.4577  0.3225  -0.5255   0.0000   0.2474
  -0.700  -0.0792   0.00511   0.00068   0.0001  0.4503  0.3320  -0.5097   0.0000   0.2474
  -0.600  -0.0679   0.00511   0.00068   0.0001  0.4414  0.3401  -0.4943   0.0000   0.2474
  -0.500  -0.0566   0.00511   0.00067   0.0001  0.4330  0.3480  -0.4794   0.0000   0.2474
  -0.400  -0.0453   0.00509   0.00067   0.0001  0.4250  0.3574  -0.4653   0.0000   0.2474
  -0.300  -0.0340   0.00510   0.00067   0.0001  0.4155  0.3654  -0.4515   0.0000   0.2475
  -0.200  -0.0226   0.00509   0.00066   0.0000  0.4081  0.3737  -0.4380   0.0000   0.2473
  -0.100  -0.0113   0.00508   0.00066   0.0000  0.3994  0.3828  -0.4252   0.0000   0.2477
   0.000   0.0000   0.00509   0.00066  -0.0000  0.3906  0.3906  -0.4127   0.0000   0.4714
   0.100   0.0113   0.00508   0.00066  -0.0000  0.3828  0.3994  -0.4252   0.0000   0.2477
   0.200   0.0226   0.00509   0.00066  -0.0000  0.3737  0.4081  -0.4380   0.0000   0.2473
   0.300   0.0340   0.00510   0.00067  -0.0001  0.3654  0.4155  -0.4515   0.0000   0.2475
   0.400   0.0453   0.00509   0.00067  -0.0001  0.3574  0.4250  -0.4653   0.0000   0.2474
   0.500   0.0566   0.00511   0.00067  -0.0001  0.3480  0.4330  -0.4794   0.0000   0.2474
   0.600   0.0679   0.00511   0.00068  -0.0001  0.3401  0.4414  -0.4943   0.0000   0.2474
   0.700   0.0792   0.00511   0.00068  -0.0001  0.3320  0.4503  -0.5097   0.0000   0.2474
   0.800   0.0906   0.00513   0.00069  -0.0002  0.3225  0.4577  -0.5255   0.0000   0.2474
   0.900   0.1019   0.00513   0.00070  -0.0002  0.3148  0.4671  -0.5421   0.0000   0.2473
   1.000   0.1132   0.00514   0.00071  -0.0002  0.3067  0.4751  -0.5593   0.0000   0.2473
   1.100   0.1245   0.00516   0.00072  -0.0002  0.2972  0.4835  -0.5770   0.0000   0.2473
   1.200   0.1358   0.00517   0.00073  -0.0002  0.2897  0.4922  -0.5957   0.0000   0.2472
   1.300   0.1471   0.00519   0.00074  -0.0003  0.2815  0.4998  -0.6151   0.0000   0.2473
   1.400   0.1584   0.00520   0.00075  -0.0003  0.2725  0.5092  -0.6349   0.0000   0.2471
   1.500   0.1697   0.00522   0.00076  -0.0003  0.2646  0.5171  -0.6559   0.0000   0.2471
   1.600   0.1810   0.00524   0.00077  -0.0003  0.2567  0.5258  -0.6773   0.0000   0.2471
   1.700   0.1922   0.00526   0.00079  -0.0003  0.2482  0.5343  -0.7000   0.0000   0.2470
   1.800   0.2035   0.00529   0.00081  -0.0003  0.2397  0.5421  -0.7230   0.0000   0.2470
   1.900   0.2148   0.00530   0.00082  -0.0003  0.2325  0.5514  -0.7475   0.0000   0.2469
   2.000   0.2261   0.00532   0.00084  -0.0004  0.2244  0.5593  -0.7722   0.0000   0.2469
   2.200   0.2486   0.00537   0.00088  -0.0004  0.2088  0.5766  -0.8250   0.0000   0.2468
   2.300   0.2599   0.00539   0.00090  -0.0004  0.2013  0.5850  -0.8525   0.0000   0.2467
   2.400   0.2711   0.00542   0.00092  -0.0004  0.1932  0.5939  -0.8813   0.0000   0.2466
   2.500   0.2824   0.00545   0.00095  -0.0004  0.1861  0.6018  -0.9104   0.0000   0.2466
   2.600   0.2936   0.00547   0.00097  -0.0004  0.1791  0.6111  -0.9408   0.0000   0.2465
   2.700   0.3048   0.00550   0.00100  -0.0004  0.1716  0.6193  -0.9724   0.0000   0.2464
   2.800   0.3160   0.00554   0.00102  -0.0004  0.1645  0.6281  -1.0042   0.0000   0.2464
   2.900   0.3273   0.00556   0.00105  -0.0004  0.1585  0.6369  -1.0368   0.0000   0.2463
   3.000   0.3385   0.00559   0.00107  -0.0004  0.1514  0.6449  -1.0716   0.0000   0.2462
   3.100   0.3497   0.00563   0.00110  -0.0004  0.1440  0.6543  -1.1065   0.0000   0.2461
   3.200   0.3609   0.00565   0.00113  -0.0004  0.1391  0.6626  -1.1420   0.0000   0.2461
   3.300   0.3722   0.00568   0.00116  -0.0004  0.1332  0.6714  -1.1781   0.0000   0.2460
   3.400   0.3833   0.00572   0.00119  -0.0004  0.1261  0.6802  -1.2166   0.0000   0.2459
   3.500   0.3945   0.00576   0.00123  -0.0004  0.1208  0.6884  -1.2557   0.0000   0.2458
   3.600   0.4057   0.00578   0.00126  -0.0004  0.1157  0.6978  -1.2950   0.0000   0.2457
   3.700   0.4169   0.00582   0.00129  -0.0004  0.1105  0.7061  -1.3347   0.0000   0.2456
   3.800   0.4282   0.00584   0.00132  -0.0004  0.1063  0.7149  -1.3757   0.0000   0.2456
   3.900   0.4393   0.00588   0.00136  -0.0004  0.1005  0.7237  -1.4190   0.0000   0.2454
   4.000   0.4505   0.00592   0.00140  -0.0004  0.0958  0.7318  -1.4630   0.0000   0.2454
   4.100   0.4616   0.00595   0.00143  -0.0004  0.0915  0.7411  -1.5073   0.0000   0.2453
   4.200   0.4728   0.00599   0.00147  -0.0004  0.0875  0.7493  -1.5520   0.0000   0.2452
   4.300   0.4840   0.00602   0.00150  -0.0004  0.0841  0.7579  -1.5972   0.0000   0.2451
   4.400   0.4951   0.00605   0.00154  -0.0004  0.0804  0.7666  -1.6427   0.0000   0.2450
   4.500   0.5064   0.00609   0.00159  -0.0004  0.0768  0.7746  -1.6925   0.0000   0.2449
   4.600   0.5174   0.00613   0.00163  -0.0003  0.0727  0.7834  -1.7423   0.0000   0.2448
   4.700   0.5286   0.00616   0.00167  -0.0003  0.0696  0.7914  -1.7929   0.0000   0.2447
   4.800   0.5397   0.00621   0.00171  -0.0003  0.0665  0.7995  -1.8438   0.0000   0.2446
   4.900   0.5509   0.00624   0.00175  -0.0003  0.0638  0.8079  -1.8952   0.0000   0.2444
   5.000   0.5621   0.00627   0.00179  -0.0003  0.0616  0.8154  -1.9472   0.0000   0.2444
   5.100   0.5731   0.00632   0.00184  -0.0002  0.0585  0.8237  -1.9991   0.0000   0.2442
   5.200   0.5843   0.00635   0.00188  -0.0002  0.0568  0.8311  -2.0521   0.0000   0.2441
   5.300   0.5954   0.00639   0.00193  -0.0002  0.0544  0.8389  -2.1090   0.0000   0.2440
   5.400   0.6064   0.00643   0.00198  -0.0002  0.0517  0.8463  -2.1669   0.0000   0.2439
   5.500   0.6176   0.00647   0.00202  -0.0001  0.0499  0.8532  -2.2257   0.0000   0.2438
   5.600   0.6285   0.00652   0.00207  -0.0001  0.0475  0.8608  -2.2843   0.0000   0.2436
   5.700   0.6397   0.00656   0.00212  -0.0001  0.0458  0.8673  -2.3440   0.0000   0.2435
   5.800   0.6507   0.00659   0.00216  -0.0000  0.0446  0.8744  -2.4042   0.0000   0.2433
   5.900   0.6618   0.00664   0.00222   0.0000  0.0430  0.8807  -2.4646   0.0000   0.2432
   6.000   0.6727   0.00669   0.00227   0.0001  0.0408  0.8874  -2.5253   0.0000   0.2430
   6.100   0.6838   0.00673   0.00232   0.0001  0.0401  0.8932  -2.5871   0.0000   0.2429
   6.200   0.6949   0.00677   0.00237   0.0001  0.0390  0.8995  -2.6492   0.0000   0.2428
   6.300   0.7058   0.00683   0.00242   0.0002  0.0374  0.9049  -2.7113   0.0000   0.2426
   6.400   0.7167   0.00688   0.00248   0.0003  0.0356  0.9109  -2.7774   0.0000   0.2424
   6.500   0.7277   0.00692   0.00253   0.0003  0.0349  0.9159  -2.8463   0.0000   0.2423
   6.600   0.7386   0.00697   0.00258   0.0004  0.0338  0.9214  -2.9154   0.0000   0.2421
   6.700   0.7494   0.00703   0.00265   0.0005  0.0325  0.9261  -2.9848   0.0000   0.2419
   6.800   0.7602   0.00709   0.00271   0.0006  0.0310  0.9311  -3.0545   0.0000   0.2417
   7.000   0.7820   0.00718   0.00281   0.0007  0.0300  0.9401  -3.1969   0.0000   0.2414
   7.100   0.7929   0.00724   0.00287   0.0008  0.0292  0.9443  -3.2689   0.0000   0.2412
   7.200   0.8035   0.00730   0.00293   0.0009  0.0283  0.9482  -3.3405   0.0000   0.2410
   7.300   0.8141   0.00737   0.00300   0.0010  0.0271  0.9524  -3.4126   0.0000   0.2407
   7.400   0.8249   0.00743   0.00306   0.0011  0.0263  0.9558  -3.4859   0.0000   0.2405
   7.500   0.8355   0.00747   0.00311   0.0013  0.0260  0.9596  -3.5594   0.0000   0.2403
   7.600   0.8462   0.00753   0.00317   0.0014  0.0256  0.9630  -3.6339   0.0000   0.2401
   7.700   0.8567   0.00759   0.00323   0.0015  0.0250  0.9661  -3.7081   0.0000   0.2398
   7.800   0.8671   0.00766   0.00330   0.0017  0.0243  0.9694  -3.7823   0.0000   0.2395
   7.900   0.8776   0.00774   0.00337   0.0018  0.0234  0.9724  -3.8575   0.0000   0.2393
   8.000   0.8878   0.00781   0.00344   0.0020  0.0223  0.9751  -3.9331   0.0000   0.2390
   8.100   0.8983   0.00787   0.00350   0.0022  0.0221  0.9780  -4.0156   0.0000   0.2387
   8.200   0.9089   0.00793   0.00356   0.0023  0.0218  0.9805  -4.0992   0.0000   0.2385
   8.300   0.9194   0.00799   0.00363   0.0024  0.0214  0.9827  -4.1832   0.0000   0.2383
   8.400   0.9300   0.00806   0.00369   0.0026  0.0210  0.9851  -4.2679   0.0000   0.2381
   8.500   0.9405   0.00814   0.00377   0.0027  0.0205  0.9872  -4.3531   0.0000   0.2379
   8.600   0.9518   0.00823   0.00384   0.0026  0.0198  0.9886  -4.4415   0.0000   0.2378
   8.700   0.9630   0.00831   0.00392   0.0026  0.0191  0.9902  -4.5305   0.0000   0.2378
   8.800   0.9741   0.00840   0.00400   0.0026  0.0185  0.9918  -4.6191   0.0000   0.2377
   8.900   0.9854   0.00846   0.00407   0.0025  0.0184  0.9932  -4.7104   0.0000   0.2377
   9.000   0.9976   0.00853   0.00414   0.0023  0.0182  0.9939  -4.8058   0.0000   0.2379
   9.100   1.0097   0.00861   0.00421   0.0020  0.0180  0.9946  -4.9014   0.0000   0.2380
   9.200   1.0216   0.00869   0.00428   0.0018  0.0177  0.9954  -4.9970   0.0000   0.2381
   9.300   1.0334   0.00878   0.00436   0.0016  0.0174  0.9961  -5.0930   0.0000   0.2382
   9.400   1.0452   0.00887   0.00445   0.0015  0.0170  0.9968  -5.1896   0.0000   0.2383
   9.500   1.0571   0.00897   0.00454   0.0013  0.0166  0.9974  -5.2867   0.0000   0.2384
   9.600   1.0693   0.00907   0.00464   0.0010  0.0161  0.9976  -5.3859   0.0000   0.2385
   9.700   1.0816   0.00918   0.00473   0.0007  0.0155  0.9978  -5.4860   0.0000   0.2387
   9.800   1.0938   0.00928   0.00483   0.0004  0.0150  0.9980  -5.5864   0.0000   0.2388
   9.900   1.1062   0.00936   0.00491   0.0000  0.0150  0.9982  -5.6894   0.0000   0.2390
  10.000   1.1185   0.00944   0.00499  -0.0003  0.0149  0.9984  -5.7928   0.0000   0.2391
  10.100   1.1307   0.00952   0.00507  -0.0006  0.0148  0.9986  -5.8967   0.0000   0.2393
  10.200   1.1429   0.00961   0.00516  -0.0008  0.0146  0.9989  -6.0012   0.0000   0.2394
  10.300   1.1551   0.00971   0.00525  -0.0011  0.0144  0.9991  -6.1060   0.0000   0.2395
  10.400   1.1672   0.00980   0.00534  -0.0014  0.0142  0.9993  -6.2113   0.0000   0.2396
  10.500   1.1792   0.00991   0.00544  -0.0017  0.0139  0.9995  -6.3183   0.0000   0.2396
  10.600   1.1911   0.01002   0.00555  -0.0019  0.0136  0.9997  -6.4316   0.0000   0.2397
  10.700   1.2030   0.01014   0.00566  -0.0022  0.0133  0.9999  -6.5453   0.0000   0.2397
  10.800   1.2129   0.01024   0.00576  -0.0019  0.0130  1.0000  -6.6497   0.0000   0.2394
  10.900   1.2215   0.01035   0.00586  -0.0015  0.0126  1.0000  -6.7485   0.0000   0.2389
  11.000   1.2303   0.01045   0.00597  -0.0010  0.0123  1.0000  -6.8482   0.0000   0.2384
  11.100   1.2392   0.01056   0.00608  -0.0006  0.0120  1.0000  -6.9489   0.0000   0.2379
  11.200   1.2484   0.01065   0.00617  -0.0002  0.0119  1.0000  -7.0529   0.0000   0.2374
  11.300   1.2577   0.01074   0.00626   0.0001  0.0119  1.0000  -7.1585   0.0000   0.2370
  11.400   1.2670   0.01083   0.00635   0.0004  0.0118  1.0000  -7.2649   0.0000   0.2366
  11.500   1.2765   0.01092   0.00644   0.0007  0.0118  1.0000  -7.3725   0.0000   0.2362
  11.600   1.2860   0.01101   0.00653   0.0010  0.0117  1.0000  -7.4812   0.0000   0.2359
  11.700   1.2957   0.01110   0.00663   0.0012  0.0117  1.0000  -7.5909   0.0000   0.2356
  11.800   1.3053   0.01120   0.00673   0.0015  0.0116  1.0000  -7.7015   0.0000   0.2352
  11.900   1.3150   0.01130   0.00683   0.0017  0.0115  1.0000  -7.8129   0.0000   0.2349
  12.000   1.3248   0.01141   0.00693   0.0019  0.0114  1.0000  -7.9250   0.0000   0.2346
  12.100   1.3345   0.01152   0.00704   0.0021  0.0113  1.0000  -8.0377   0.0000   0.2343
  12.200   1.3442   0.01163   0.00716   0.0023  0.0111  1.0000  -8.1509   0.0000   0.2340
  12.300   1.3539   0.01175   0.00727   0.0026  0.0110  1.0000  -8.2646   0.0000   0.2337
  12.400   1.3635   0.01187   0.00739   0.0028  0.0108  1.0000  -8.3787   0.0000   0.2334
  12.500   1.3731   0.01199   0.00752   0.0030  0.0107  1.0000  -8.4931   0.0000   0.2331
  12.600   1.3826   0.01213   0.00765   0.0032  0.0105  1.0000  -8.6077   0.0000   0.2328
  12.700   1.3921   0.01226   0.00778   0.0034  0.0103  1.0000  -8.7226   0.0000   0.2325
  12.800   1.4016   0.01240   0.00792   0.0037  0.0101  1.0000  -8.8376   0.0000   0.2322
  12.900   1.4110   0.01254   0.00806   0.0039  0.0099  1.0000  -8.9527   0.0000   0.2319
  13.000   1.4204   0.01268   0.00821   0.0041  0.0096  1.0000  -9.0679   0.0000   0.2316
  13.100   1.4297   0.01283   0.00837   0.0044  0.0094  1.0000  -9.1831   0.0000   0.2312
  13.200   1.4390   0.01299   0.00852   0.0046  0.0092  1.0000  -9.2981   0.0000   0.2309
  13.300   1.4485   0.01312   0.00866   0.0048  0.0091  1.0000  -9.4164   0.0000   0.2306
  13.400   1.4580   0.01324   0.00878   0.0050  0.0091  1.0000  -9.5370   0.0000   0.2303
  13.500   1.4676   0.01336   0.00891   0.0052  0.0091  1.0000  -9.6581   0.0000   0.2300
  13.600   1.4771   0.01348   0.00903   0.0054  0.0091  1.0000  -9.7795   0.0000   0.2298
  13.700   1.4865   0.01361   0.00916   0.0057  0.0091  1.0000  -9.9013   0.0000   0.2295
  13.800   1.4959   0.01373   0.00929   0.0059  0.0091  1.0000  -10.0233   0.0000   0.2292
  13.900   1.5053   0.01386   0.00943   0.0061  0.0090  1.0000  -10.1457   0.0000   0.2289
  14.000   1.5146   0.01399   0.00956   0.0063  0.0090  1.0000  -10.2683   0.0000   0.2286
  14.100   1.5238   0.01413   0.00970   0.0066  0.0090  1.0000  -10.3912   0.0000   0.2283
  14.200   1.5330   0.01426   0.00984   0.0068  0.0089  1.0000  -10.5144   0.0000   0.2280
  14.300   1.5421   0.01440   0.00998   0.0070  0.0089  1.0000  -10.6378   0.0000   0.2276
  14.400   1.5512   0.01454   0.01013   0.0073  0.0088  1.0000  -10.7613   0.0000   0.2273
  14.500   1.5601   0.01469   0.01028   0.0076  0.0087  1.0000  -10.8848   0.0000   0.2270
  14.600   1.5690   0.01484   0.01044   0.0078  0.0087  1.0000  -11.0083   0.0000   0.2267
  14.700   1.5778   0.01500   0.01059   0.0081  0.0086  1.0000  -11.1318   0.0000   0.2263
  14.800   1.5865   0.01515   0.01076   0.0084  0.0085  1.0000  -11.2552   0.0000   0.2260
  14.900   1.5950   0.01532   0.01093   0.0088  0.0084  1.0000  -11.3785   0.0000   0.2256
  15.000   1.6035   0.01549   0.01110   0.0091  0.0084  1.0000  -11.5014   0.0000   0.2253
  15.100   1.6118   0.01566   0.01128   0.0094  0.0083  1.0000  -11.6241   0.0000   0.2249
  15.200   1.6201   0.01584   0.01146   0.0098  0.0082  1.0000  -11.7463   0.0000   0.2245
  15.300   1.6281   0.01603   0.01165   0.0102  0.0081  1.0000  -11.8681   0.0000   0.2241
  15.400   1.6361   0.01622   0.01185   0.0105  0.0080  1.0000  -11.9896   0.0000   0.2237
  15.500   1.6439   0.01641   0.01205   0.0110  0.0079  1.0000  -12.1176   0.0000   0.2233
  15.600   1.6516   0.01661   0.01225   0.0114  0.0078  1.0000  -12.2450   0.0000   0.2229
  15.700   1.6592   0.01681   0.01246   0.0118  0.0077  1.0000  -12.3719   0.0000   0.2225
  15.800   1.6665   0.01702   0.01268   0.0123  0.0076  1.0000  -12.4981   0.0000   0.2221
  15.900   1.6738   0.01724   0.01290   0.0128  0.0075  1.0000  -12.6234   0.0000   0.2216
  16.000   1.6808   0.01746   0.01313   0.0133  0.0073  1.0000  -12.7476   0.0000   0.2211
  16.100   1.6875   0.01768   0.01336   0.0138  0.0072  1.0000  -12.8702   0.0000   0.2207
  16.200   1.6938   0.01791   0.01360   0.0145  0.0071  1.0000  -12.9895   0.0000   0.2201
  16.300   1.6991   0.01814   0.01384   0.0153  0.0070  1.0000  -13.1029   0.0000   0.2195
  16.400   1.7040   0.01837   0.01409   0.0161  0.0069  1.0000  -13.2130   0.0000   0.2188
  16.500   1.7086   0.01863   0.01436   0.0170  0.0068  1.0000  -13.3217   0.0000   0.2181
  16.600   1.7131   0.01889   0.01464   0.0179  0.0067  1.0000  -13.4293   0.0000   0.2174
  16.700   1.7186   0.01911   0.01487   0.0186  0.0067  1.0000  -13.5465   0.0000   0.2168
  16.800   1.7240   0.01934   0.01511   0.0193  0.0067  1.0000  -13.6636   0.0000   0.2163
  16.900   1.7293   0.01958   0.01536   0.0200  0.0067  1.0000  -13.7806   0.0000   0.2157
  17.000   1.7345   0.01982   0.01562   0.0207  0.0067  1.0000  -13.8973   0.0000   0.2151
  17.100   1.7397   0.02008   0.01589   0.0214  0.0067  1.0000  -14.0135   0.0000   0.2146
  17.200   1.7447   0.02035   0.01617   0.0220  0.0067  1.0000  -14.1295   0.0000   0.2140
  17.300   1.7497   0.02062   0.01646   0.0227  0.0067  1.0000  -14.2449   0.0000   0.2135
  17.400   1.7545   0.02091   0.01676   0.0233  0.0067  1.0000  -14.3594   0.0000   0.2129
  17.500   1.7593   0.02122   0.01708   0.0239  0.0067  1.0000  -14.4739   0.0000   0.2124
  17.600   1.7640   0.02153   0.01741   0.0245  0.0067  1.0000  -14.5877   0.0000   0.2119
  17.700   1.7684   0.02186   0.01775   0.0251  0.0067  1.0000  -14.7001   0.0000   0.2114
  17.800   1.7728   0.02220   0.01811   0.0257  0.0067  1.0000  -14.8124   0.0000   0.2109
  17.900   1.7772   0.02256   0.01848   0.0263  0.0066  1.0000  -14.9242   0.0000   0.2104
  18.000   1.7813   0.02294   0.01887   0.0268  0.0066  1.0000  -15.0345   0.0000   0.2099
  18.100   1.7853   0.02333   0.01928   0.0273  0.0066  1.0000  -15.1440   0.0000   0.2094
  18.200   1.7892   0.02374   0.01970   0.0278  0.0066  1.0000  -15.2526   0.0000   0.2089
  18.300   1.7930   0.02417   0.02015   0.0283  0.0066  1.0000  -15.3603   0.0000   0.2085
  18.400   1.7967   0.02462   0.02062   0.0288  0.0066  1.0000  -15.4674   0.0000   0.2080
  18.500   1.8001   0.02509   0.02110   0.0292  0.0066  1.0000  -15.5726   0.0000   0.2076
  18.600   1.8034   0.02559   0.02162   0.0297  0.0065  1.0000  -15.6761   0.0000   0.2071
  18.700   1.8065   0.02610   0.02215   0.0301  0.0065  1.0000  -15.7791   0.0000   0.2067
  18.800   1.8096   0.02665   0.02272   0.0304  0.0065  1.0000  -15.8810   0.0000   0.2063
  18.900   1.8124   0.02723   0.02331   0.0307  0.0065  1.0000  -15.9810   0.0000   0.2059
  19.000   1.8150   0.02783   0.02393   0.0311  0.0065  1.0000  -16.0792   0.0000   0.2055
  19.100   1.8175   0.02846   0.02458   0.0313  0.0065  1.0000  -16.1757   0.0000   0.2052
  19.200   1.8197   0.02912   0.02526   0.0316  0.0064  1.0000  -16.2702   0.0000   0.2048
  19.300   1.8217   0.02982   0.02599   0.0318  0.0064  1.0000  -16.3625   0.0000   0.2045
  19.400   1.8235   0.03056   0.02675   0.0320  0.0064  1.0000  -16.4534   0.0000   0.2041
  19.500   1.8252   0.03133   0.02754   0.0321  0.0064  1.0000  -16.5426   0.0000   0.2038
  19.600   1.8266   0.03214   0.02837   0.0322  0.0064  1.0000  -16.6291   0.0000   0.2035
  19.700   1.8276   0.03300   0.02925   0.0323  0.0063  1.0000  -16.7115   0.0000   0.2032
  19.800   1.8283   0.03391   0.03018   0.0323  0.0063  1.0000  -16.7913   0.0000   0.2030
  19.900   1.8288   0.03486   0.03116   0.0323  0.0063  1.0000  -16.8689   0.0000   0.2027
  20.000   1.8291   0.03585   0.03218   0.0322  0.0063  1.0000  -16.9441   0.0000   0.2025
  20.100   1.8291   0.03690   0.03325   0.0321  0.0062  1.0000  -17.0162   0.0000   0.2023
  20.200   1.8287   0.03800   0.03438   0.0319  0.0062  1.0000  -17.0847   0.0000   0.2021
  20.300   1.8280   0.03917   0.03557   0.0317  0.0062  1.0000  -17.1487   0.0000   0.2020
  20.400   1.8267   0.04040   0.03683   0.0314  0.0062  1.0000  -17.2071   0.0000   0.2018
  20.500   1.8250   0.04170   0.03816   0.0311  0.0062  1.0000  -17.2613   0.0000   0.2017
  20.600   1.8230   0.04307   0.03956   0.0308  0.0061  1.0000  -17.3114   0.0000   0.2016
  20.700   1.8206   0.04451   0.04103   0.0303  0.0061  1.0000  -17.3570   0.0000   0.2015
  20.800   1.8177   0.04603   0.04258   0.0299  0.0061  1.0000  -17.3975   0.0000   0.2015
  20.900   1.8144   0.04762   0.04420   0.0293  0.0061  1.0000  -17.4328   0.0000   0.2015
  21.000   1.8105   0.04931   0.04592   0.0287  0.0061  1.0000  -17.4617   0.0000   0.2015
  21.100   1.8059   0.05108   0.04773   0.0281  0.0060  1.0000  -17.4828   0.0000   0.2015
  21.200   1.8008   0.05296   0.04965   0.0273  0.0060  1.0000  -17.4974   0.0000   0.2016
  21.300   1.7952   0.05494   0.05166   0.0265  0.0060  1.0000  -17.5055   0.0000   0.2017
  21.400   1.7890   0.05703   0.05379   0.0256  0.0060  1.0000  -17.5063   0.0000   0.2018
  21.500   1.7821   0.05924   0.05604   0.0247  0.0060  1.0000  -17.4991   0.0000   0.2020
  21.600   1.7745   0.06156   0.05840   0.0236  0.0060  1.0000  -17.4835   0.0000   0.2023
  21.700   1.7660   0.06400   0.06088   0.0225  0.0060  1.0000  -17.4569   0.0000   0.2025
  21.800   1.7568   0.06657   0.06350   0.0214  0.0059  1.0000  -17.4212   0.0000   0.2028
  21.900   1.7469   0.06928   0.06624   0.0201  0.0059  1.0000  -17.3769   0.0000   0.2031
  22.000   1.7363   0.07212   0.06914   0.0188  0.0059  1.0000  -17.3224   0.0000   0.2036
  22.100   1.7246   0.07517   0.07224   0.0173  0.0059  1.0000  -17.2534   0.0000   0.2040
  22.200   1.7114   0.07845   0.07556   0.0157  0.0059  1.0000  -17.1671   0.0000   0.2046
  22.300   1.6971   0.08188   0.07905   0.0140  0.0059  1.0000  -17.0659   0.0000   0.2052
  22.400   1.6824   0.08543   0.08265   0.0122  0.0059  1.0000  -16.9575   0.0000   0.2059
  22.500   1.6671   0.08910   0.08638   0.0103  0.0059  1.0000  -16.8401   0.0000   0.2066
  22.600   1.6506   0.09302   0.09036   0.0083  0.0059  1.0000  -16.7054   0.0000   0.2074
  22.700   1.6314   0.09739   0.09479   0.0061  0.0059  1.0000  -16.5362   0.0000   0.2085
  22.800   1.6121   0.10176   0.09922   0.0038  0.0059  1.0000  -16.3620   0.0000   0.2095
  22.900   1.5930   0.10619   0.10371   0.0014  0.0060  1.0000  -16.1857   0.0000   0.2107
  23.000   1.5716   0.11106   0.10865  -0.0012  0.0060  1.0000  -15.9772   0.0000   0.2121
  23.100   1.5485   0.11631   0.11397  -0.0042  0.0060  1.0000  -15.7411   0.0000   0.2137
  23.200   1.5266   0.12131   0.11905  -0.0070  0.0060  1.0000  -15.5160   0.0000   0.2153
  23.300   1.5034   0.12667   0.12447  -0.0101  0.0060  1.0000  -15.2661   0.0000   0.2171
  23.400   1.4770   0.13272   0.13060  -0.0136  0.0060  1.0000  -14.9662   0.0000   0.2194
  23.500   1.4543   0.13820   0.13615  -0.0170  0.0061  1.0000  -14.7060   0.0000   0.2216
  23.600   1.4310   0.14395   0.14196  -0.0205  0.0061  1.0000  -14.4271   0.0000   0.2240
  23.700   1.4025   0.15066   0.14876  -0.0248  0.0061  1.0000  -14.0672   0.0000   0.2271
  23.800   1.3798   0.15650   0.15467  -0.0285  0.0061  1.0000  -13.7748   0.0000   0.2299
  23.900   1.3580   0.16232   0.16056  -0.0324  0.0061  1.0000  -13.4838   0.0000   0.2328
  24.000   1.3294   0.16971   0.16803  -0.0374  0.0061  1.0000  -13.0726   0.0000   0.2369
  24.100   1.3082   0.17577   0.17416  -0.0416  0.0062  1.0000  -12.7605   0.0000   0.2404
  24.200   1.2882   0.18170   0.18016  -0.0457  0.0062  1.0000  -12.4534   0.0000   0.2440
  24.300   1.2691   0.18752   0.18603  -0.0498  0.0062  1.0000  -12.1492   0.0000   0.2476
  24.400   1.2513   0.19325   0.19182  -0.0539  0.0062  1.0000  -11.8508   0.0000   0.2513
  24.500   1.2346   0.19887   0.19750  -0.0579  0.0061  1.0000  -11.5574   0.0000   0.2550
  24.600   1.2192   0.20437   0.20304  -0.0618  0.0061  1.0000  -11.2735   0.0000   0.2587
  24.700   1.2057   0.20953   0.20825  -0.0656  0.0061  1.0000  -11.0106   0.0000   0.2623
  24.800   1.1999   0.21279   0.21154  -0.0679  0.0061  1.0000  -10.8948   0.0000   0.2644
  24.900   1.1876   0.21787   0.21666  -0.0716  0.0060  1.0000  -10.6360   0.0000   0.2679
  25.000   1.1837   0.22070   0.21951  -0.0737  0.0060  1.0000  -10.5479   0.0000   0.2697


